  Page 1                                    Mon Feb 04 16:51:07 2019

  ******************************************************************
  *                           E P A N E T                          *
  *                   Hydraulic and Water Quality                  *
  *                   Analysis for Pipe Networks                   *
  *                         Version 2.1                            *
  ******************************************************************
  
  Analysis begun Mon Feb 04 16:51:07 2019

   
  Hydraulic Status:
  -----------------------------------------------------------------------
     0:00:00: Balanced after 10 trials
     0:00:00: Reservoir RS0001 is emptying
     0:00:00: Reservoir RS0002 is emptying
   
     1:00:00: Balanced after 6 trials
   
     2:00:00: Balanced after 7 trials
   
     3:00:00: Balanced after 7 trials
   
     4:00:00: Balanced after 8 trials
   
     5:00:00: Balanced after 7 trials
   
     6:00:00: Balanced after 6 trials
   
     7:00:00: Balanced after 5 trials
   
     8:00:00: Balanced after 5 trials
   
     9:00:00: Balanced after 4 trials
   
    10:00:00: Balanced after 4 trials
   
    11:00:00: Balanced after 3 trials
   
    12:00:00: Balanced after 5 trials
   
    13:00:00: Balanced after 5 trials
   
    14:00:00: Balanced after 4 trials
   
    15:00:00: Balanced after 3 trials
   
    16:00:00: Balanced after 5 trials
   
    17:00:00: Balanced after 5 trials
   
    18:00:00: Balanced after 3 trials
   
    19:00:00: Balanced after 5 trials
   
    20:00:00: Balanced after 6 trials
   
    21:00:00: Balanced after 7 trials
   
    22:00:00: Balanced after 8 trials
   
    23:00:00: Balanced after 7 trials
   
    24:00:00: Balanced after 6 trials
   
   
  Node Results at 1:00:00 hrs:
  ----------------------------------------------
                     Demand      Head  Pressure
  Node                  L/s         m         m
  ----------------------------------------------
  JT_01_001            0.00     49.98     49.98
  JT_0A_001            0.05     49.98     49.98
  JT_0A_002            0.05     49.92     49.92
  JT_0A_003            0.05     49.89     49.89
  JT_0A_004            0.05     49.88     49.88
  JT_0A_005            0.05     49.88     49.88
  JT_0A_006            0.05     49.88     49.88
  JT_0A_007            0.05     49.88     49.88
  JT_0A_008            0.05     49.88     49.88
  JT_0A_009            0.05     49.88     49.88
  JT_0A_010            0.05     49.88     49.88
  JT_0A_011            0.05     49.88     49.88
  JT_0B_001            0.05     49.92     49.92
  JT_0B_002            0.05     49.90     49.90
  JT_0B_003            0.05     49.89     49.89
  JT_0B_004            0.05     49.88     49.88
  JT_0B_005            0.05     49.88     49.88
  JT_0B_006            0.05     49.88     49.88
  JT_0B_007            0.05     49.88     49.88
  JT_0B_008            0.05     49.88     49.88
  JT_0B_009            0.05     49.88     49.88
  JT_0B_010            0.05     49.88     49.88
  JT_0B_011            0.05     49.88     49.88
  JT_0C_001            0.05     49.89     49.89
  JT_0C_002            0.05     49.89     49.89
  JT_0C_003            0.05     49.89     49.89
  JT_0C_004            0.05     49.88     49.88
  JT_0C_005            0.05     49.88     49.88
  JT_0C_006            0.05     49.88     49.88
  JT_0C_007            0.05     49.88     49.88
  JT_0C_008            0.05     49.88     49.88
  JT_0C_009            0.05     49.88     49.88
  JT_0C_010            0.05     49.88     49.88
  JT_0C_011            0.05     49.88     49.88
  JT_0D_001            0.05     49.88     49.88
  JT_0D_002            0.05     49.88     49.88
  JT_0D_003            0.05     49.88     49.88
  JT_0D_004            0.05     49.88     49.88
  JT_0D_005            0.05     49.88     49.88
  JT_0D_006            0.05     49.88     49.88
  JT_0D_007            0.05     49.88     49.88
  JT_0D_008            0.05     49.88     49.88
  JT_0D_009            0.05     49.88     49.88
  JT_0D_010            0.05     49.88     49.88
  JT_0D_011            0.05     49.88     49.88
  JT_0E_001            0.05     49.88     49.88
  JT_0E_002            0.05     49.88     49.88
  JT_0E_003            0.05     49.88     49.88
  JT_0E_004            0.05     49.88     49.88
  JT_0E_005            0.05     49.88     49.88
  JT_0E_006            0.05     49.88     49.88
  JT_0E_007            0.05     49.88     49.88
  JT_0E_008            0.05     49.88     49.88
  JT_0E_009            0.05     49.88     49.88
  JT_0E_010            0.05     49.88     49.88
  JT_0E_011            0.05     49.88     49.88
  JT_0F_001            0.05     49.88     49.88
  JT_0F_002            0.05     49.88     49.88
  JT_0F_003            0.05     49.88     49.88
  JT_0F_004            0.05     49.88     49.88
  JT_0F_005            0.05     49.88     49.88
  JT_0F_006            0.05     49.88     49.88
  JT_0F_007            0.05     49.88     49.88
  JT_0F_008            0.05     49.88     49.88
  JT_0F_009            0.05     49.88     49.88
  JT_0F_010            0.05     49.88     49.88
  JT_0F_011            0.05     49.88     49.88
  JT_0G_001            0.05     49.88     49.88
  JT_0G_002            0.05     49.88     49.88
  JT_0G_003            0.05     49.88     49.88
  JT_0G_004            0.05     49.88     49.88
  JT_0G_005            0.05     49.88     49.88
  JT_0G_006            0.05     49.88     49.88
  JT_0G_007            0.05     49.88     49.88
  JT_0G_008            0.05     49.88     49.88
  JT_0G_009            0.05     49.88     49.88
  JT_0G_010            0.05     49.88     49.88
  JT_0G_011            0.05     49.88     49.88
  JT_0H_001            0.05     49.88     49.88
  JT_0H_002            0.05     49.88     49.88
  JT_0H_003            0.05     49.88     49.88
  JT_0H_004            0.05     49.88     49.88
  JT_0H_005            0.05     49.88     49.88
  JT_0H_006            0.05     49.88     49.88
  JT_0H_007            0.05     49.88     49.88
  JT_0H_008            0.05     49.88     49.88
  JT_0H_009            0.05     49.88     49.88
  JT_0H_010            0.05     49.88     49.88
  JT_0H_011            0.05     49.88     49.88
  JT_0I_001            0.05     49.88     49.88
  JT_0I_002            0.05     49.88     49.88
  JT_0I_003            0.05     49.88     49.88
  JT_0I_004            0.05     49.88     49.88
  JT_0I_005            0.05     49.88     49.88
  JT_0I_006            0.05     49.88     49.88
  JT_0I_007            0.05     49.88     49.88
  JT_0I_008            0.05     49.88     49.88
  JT_0I_009            0.05     49.88     49.88
  JT_0I_010            0.05     49.88     49.88
  JT_0I_011            0.05     49.88     49.88
  JT_0J_001            0.05     49.88     49.88
  JT_0J_002            0.05     49.88     49.88
  JT_0J_003            0.05     49.88     49.88
  JT_0J_004            0.05     49.88     49.88
  JT_0J_005            0.05     49.88     49.88
  JT_0J_006            0.05     49.88     49.88
  JT_0J_007            0.05     49.88     49.88
  JT_0J_008            0.05     49.88     49.88
  JT_0J_009            0.05     49.89     49.89
  JT_0J_010            0.05     49.91     49.91
  JT_0J_011            0.05     49.94     49.94
  JT_0K_001            0.05     49.88     49.88
  JT_0K_002            0.05     49.88     49.88
  JT_0K_003            0.05     49.88     49.88
  JT_0K_004            0.05     49.88     49.88
  JT_0K_005            0.05     49.88     49.88
  JT_0K_006            0.05     49.88     49.88
  JT_0K_007            0.05     49.88     49.88
  JT_0K_008            0.05     49.88     49.88
  JT_0K_009            0.05     49.90     49.90
  JT_0K_010            0.05     49.92     49.92
  JT_0K_011            0.05     49.98     49.98
  JT_02_001            0.00     49.98     49.98
  RS0001              -3.39     50.00     -0.00  Reservoir
  RS0002              -3.00     50.00     -0.00  Reservoir
   
   
  Link Results at 1:00:00 hrs:
  ----------------------------------------------
                       Flow  Velocity  Headloss
  Link                  L/s       m/s    /1000m
  ----------------------------------------------
  PS_0A_001            1.67      0.21      0.62
  PS_0A_002            0.93      0.12      0.22
  PS_0A_003            0.59      0.07      0.10
  PS_0A_004            0.38      0.05      0.05
  PS_0A_005            0.26      0.03      0.02
  PS_0A_006            0.20      0.02      0.01
  PS_0A_007            0.15      0.02      0.01
  PS_0A_008            0.10      0.01      0.00
  PS_0A_009            0.06      0.01      0.00
  PS_0B_001            0.69      0.09      0.13
  PS_0B_002            0.66      0.08      0.12
  PS_0B_003            0.51      0.06      0.08
  PS_0B_004            0.36      0.05      0.04
  PS_0B_005            0.25      0.03      0.02
  PS_0B_006            0.19      0.02      0.01
  PS_0B_007            0.14      0.02      0.01
  PS_0B_008            0.10      0.01      0.00
  PS_0B_009            0.06      0.01      0.00
  PS_0C_001            0.29      0.04      0.03
  PS_0C_002            0.39      0.05      0.05
  PS_0C_003            0.37      0.05      0.04
  PS_0C_004            0.30      0.04      0.03
  PS_0C_005            0.23      0.03      0.01
  PS_0C_006            0.17      0.02      0.01
  PS_0C_007            0.12      0.02      0.01
  PS_0C_008            0.08      0.01      0.00
  PS_0C_009            0.05      0.01      0.00
  PS_0D_001            0.16      0.02      0.01
  PS_0D_002            0.25      0.03      0.02
  PS_0D_003            0.26      0.03      0.02
  PS_0D_004            0.24      0.03      0.02
  PS_0D_005            0.20      0.03      0.01
  PS_0D_006            0.14      0.02      0.01
  PS_0D_007            0.10      0.01      0.00
  PS_0D_008            0.07      0.01      0.00
  PS_0D_009            0.04      0.01      0.00
  PS_0E_001            0.07      0.01      0.00
  PS_0E_002            0.13      0.02      0.01
  PS_0E_003            0.15      0.02      0.01
  PS_0E_004            0.15      0.02      0.01
  PS_0E_005            0.12      0.02      0.01
  PS_0E_006            0.09      0.01      0.00
  PS_0E_007            0.06      0.01      0.00
  PS_0E_008            0.04      0.00      0.00
  PS_0E_009            0.03      0.00      0.00
  PS_0F_001            0.01      0.00      0.00
  PS_0F_002            0.03      0.00      0.00
  PS_0F_003            0.04      0.01      0.00
  PS_0F_004            0.05      0.01      0.00
  PS_0F_005            0.04      0.01      0.00
  PS_0F_006            0.02      0.00      0.00
  PS_0F_007            0.01      0.00      0.00
  PS_0F_008            0.01      0.00      0.00
  PS_0F_009            0.01      0.00      0.00
  PS_0G_001           -0.00      0.00      0.00
  PS_0G_002            0.00      0.00      0.00
  PS_0G_003           -0.00      0.00      0.00
  PS_0G_004           -0.01      0.00      0.00
  PS_0G_005           -0.03      0.00      0.00
  PS_0G_006           -0.05      0.01      0.00
  PS_0G_007           -0.05      0.01      0.00
  PS_0G_008           -0.03      0.00      0.00
  PS_0G_009           -0.01      0.00      0.00
  PS_0H_001           -0.01      0.00      0.00
  PS_0H_002           -0.02      0.00      0.00
  PS_0H_003           -0.04      0.00      0.00
  PS_0H_004           -0.06      0.01      0.00
  PS_0H_005           -0.09      0.01      0.00
  PS_0H_006           -0.14      0.02      0.01
  PS_0H_007           -0.16      0.02      0.01
  PS_0H_008           -0.16      0.02      0.01
  PS_0H_009           -0.07      0.01      0.00
  PS_0I_001           -0.02      0.00      0.00
  PS_0I_002           -0.04      0.00      0.00
  PS_0I_003           -0.06      0.01      0.00
  PS_0I_004           -0.10      0.01      0.00
  PS_0I_005           -0.14      0.02      0.01
  PS_0I_006           -0.21      0.03      0.01
  PS_0I_007           -0.27      0.03      0.02
  PS_0I_008           -0.30      0.04      0.03
  PS_0I_009           -0.20      0.03      0.01
  PS_0J_001           -0.02      0.00      0.00
  PS_0J_002           -0.05      0.01      0.00
  PS_0J_003           -0.08      0.01      0.00
  PS_0J_004           -0.12      0.02      0.01
  PS_0J_005           -0.17      0.02      0.01
  PS_0J_006           -0.24      0.03      0.02
  PS_0J_007           -0.37      0.05      0.04
  PS_0J_008           -0.54      0.07      0.08
  PS_0J_009           -0.80      0.10      0.17
  PS_01_001            1.67      0.21      0.62
  PS_01_002            0.93      0.12      0.22
  PS_01_003            0.59      0.07      0.10
  PS_01_004            0.38      0.05      0.05
  PS_01_005            0.26      0.03      0.02
  PS_01_006            0.19      0.02      0.01
  PS_01_007            0.14      0.02      0.01
  PS_01_008            0.09      0.01      0.00
  PS_01_009            0.06      0.01      0.00
  PS_02_001            0.68      0.09      0.13
  PS_02_002            0.66      0.08      0.12
  PS_02_003            0.50      0.06      0.08
  PS_02_004            0.36      0.05      0.04
  PS_02_005            0.25      0.03      0.02
  PS_02_006            0.18      0.02      0.01
  PS_02_007            0.13      0.02      0.01
  PS_02_008            0.08      0.01      0.00
  PS_02_009            0.05      0.01      0.00
  PS_03_001            0.29      0.04      0.03
  PS_03_002            0.39      0.05      0.05
  PS_03_003            0.37      0.05      0.04
  PS_03_004            0.30      0.04      0.03
  PS_03_005            0.22      0.03      0.01
  PS_03_006            0.16      0.02      0.01
  PS_03_007            0.11      0.01      0.00
  PS_03_008            0.07      0.01      0.00
  PS_03_009            0.04      0.01      0.00
  PS_04_001            0.15      0.02      0.01
  PS_04_002            0.25      0.03      0.02
  PS_04_003            0.26      0.03      0.02
  PS_04_004            0.24      0.03      0.01
  PS_04_005            0.18      0.02      0.01
  PS_04_006            0.12      0.01      0.01
  PS_04_007            0.07      0.01      0.00
  PS_04_008            0.04      0.01      0.00
  PS_04_009            0.02      0.00      0.00
  PS_05_001            0.07      0.01      0.00
  PS_05_002            0.12      0.02      0.01
  PS_05_003            0.14      0.02      0.01
  PS_05_004            0.13      0.02      0.01
  PS_05_005            0.10      0.01      0.00
  PS_05_006            0.06      0.01      0.00
  PS_05_007            0.02      0.00      0.00
  PS_05_008            0.00      0.00      0.00
  PS_05_009           -0.00      0.00      0.00
  PS_06_001            0.01      0.00      0.00
  PS_06_002            0.02      0.00      0.00
  PS_06_003            0.03      0.00      0.00
  PS_06_004            0.03      0.00      0.00
  PS_06_005            0.02      0.00      0.00
  PS_06_006           -0.01      0.00      0.00
  PS_06_007           -0.04      0.01      0.00
  PS_06_008           -0.05      0.01      0.00
  PS_06_009           -0.03      0.00      0.00
  PS_07_001           -0.00      0.00      0.00
  PS_07_002           -0.00      0.00      0.00
  PS_07_003           -0.01      0.00      0.00
  PS_07_004           -0.02      0.00      0.00
  PS_07_005           -0.04      0.01      0.00
  PS_07_006           -0.08      0.01      0.00
  PS_07_007           -0.14      0.02      0.01
  PS_07_008           -0.17      0.02      0.01
  PS_07_009           -0.16      0.02      0.01
  PS_08_001           -0.01      0.00      0.00
  PS_08_002           -0.02      0.00      0.00
  PS_08_003           -0.03      0.00      0.00
  PS_08_004           -0.06      0.01      0.00
  PS_08_005           -0.09      0.01      0.00
  PS_08_006           -0.14      0.02      0.01
  PS_08_007           -0.21      0.03      0.01
  PS_08_008           -0.27      0.03      0.02
  PS_08_009           -0.29      0.04      0.03
  PS_09_001           -0.02      0.00      0.00
  PS_09_002           -0.03      0.00      0.00
  PS_09_003           -0.05      0.01      0.00
  PS_09_004           -0.08      0.01      0.00
  PS_09_005           -0.12      0.02      0.01
  PS_09_006           -0.17      0.02      0.01
  PS_09_007           -0.24      0.03      0.02
  PS_09_008           -0.38      0.05      0.05
  PS_09_009           -0.53      0.07      0.08
  PS_10_001           -0.02      0.00      0.00
  PS_10_002           -0.04      0.01      0.00
  PS_10_003           -0.07      0.01      0.00
  PS_10_004           -0.10      0.01      0.00
  PS_10_005           -0.14      0.02      0.01
  PS_10_006           -0.19      0.02      0.01
  PS_10_007           -0.25      0.03      0.02
  PS_10_008           -0.41      0.05      0.05
  PS_10_009           -0.98      0.13      0.24
  PS_01_010            0.03      0.00      0.00
  PS_02_010            0.02      0.00      0.00
  PS_03_010            0.02      0.00      0.00
  PS_04_010            0.01      0.00      0.00
  PS_05_010           -0.00      0.00      0.00
  PS_06_010           -0.02      0.00      0.00
  PS_07_010           -0.08      0.01      0.00
  PS_08_010           -0.18      0.02      0.01
  PS_09_010           -0.32      0.04      0.03
  PS_10_010           -0.63      0.08      0.11
  PS_11_010           -1.27      0.16      0.38
  PS_0K_001           -0.03      0.00      0.00
  PS_0K_002           -0.05      0.01      0.00
  PS_0K_003           -0.09      0.01      0.00
  PS_0K_004           -0.13      0.02      0.01
  PS_0K_005           -0.18      0.02      0.01
  PS_0K_006           -0.26      0.03      0.02
  PS_0K_007           -0.39      0.05      0.05
  PS_0K_008           -0.63      0.08      0.11
  PS_0K_009           -0.99      0.13      0.25
  PS_0A_010            0.03      0.00      0.00
  PS_0B_010            0.03      0.00      0.00
  PS_0C_010            0.03      0.00      0.00
  PS_0D_010            0.02      0.00      0.00
  PS_0E_010            0.01      0.00      0.00
  PS_0F_010            0.01      0.00      0.00
  PS_0G_010           -0.00      0.00      0.00
  PS_0H_010            0.03      0.00      0.00
  PS_0I_010            0.31      0.04      0.03
  PS_0J_010           -1.21      0.15      0.35
  PS_0K_010           -1.67      0.21      0.62
  PS_11_001           -0.02      0.00      0.00
  PS_11_002           -0.04      0.01      0.00
  PS_11_003           -0.07      0.01      0.00
  PS_11_004           -0.11      0.01      0.00
  PS_11_005           -0.15      0.02      0.01
  PS_11_006           -0.19      0.02      0.01
  PS_11_007           -0.25      0.03      0.02
  PS_11_008           -0.27      0.03      0.02
  PS_11_009           -0.00      0.03      0.63
  PT_01_001            3.39      0.05      0.01
  PT_02_001            3.00      0.04      0.01
  PRV_001              3.39      0.05      0.00  PRV
  PRV_002              3.00      0.04      0.00  PRV
   
   
  Node Results at 2:00:00 hrs:
  ----------------------------------------------
                     Demand      Head  Pressure
  Node                  L/s         m         m
  ----------------------------------------------
  JT_01_001            0.00     49.98     49.98
  JT_0A_001            0.05     49.98     49.98
  JT_0A_002            0.05     49.93     49.93
  JT_0A_003            0.05     49.91     49.91
  JT_0A_004            0.05     49.90     49.90
  JT_0A_005            0.05     49.89     49.89
  JT_0A_006            0.05     49.89     49.89
  JT_0A_007            0.05     49.89     49.89
  JT_0A_008            0.05     49.89     49.89
  JT_0A_009            0.05     49.89     49.89
  JT_0A_010            0.05     49.89     49.89
  JT_0A_011            0.05     49.89     49.89
  JT_0B_001            0.05     49.93     49.93
  JT_0B_002            0.05     49.91     49.91
  JT_0B_003            0.05     49.90     49.90
  JT_0B_004            0.05     49.90     49.90
  JT_0B_005            0.05     49.89     49.89
  JT_0B_006            0.05     49.89     49.89
  JT_0B_007            0.05     49.89     49.89
  JT_0B_008            0.05     49.89     49.89
  JT_0B_009            0.05     49.89     49.89
  JT_0B_010            0.05     49.89     49.89
  JT_0B_011            0.05     49.89     49.89
  JT_0C_001            0.05     49.91     49.91
  JT_0C_002            0.05     49.90     49.90
  JT_0C_003            0.05     49.90     49.90
  JT_0C_004            0.05     49.90     49.90
  JT_0C_005            0.05     49.89     49.89
  JT_0C_006            0.05     49.89     49.89
  JT_0C_007            0.05     49.89     49.89
  JT_0C_008            0.05     49.89     49.89
  JT_0C_009            0.05     49.89     49.89
  JT_0C_010            0.05     49.89     49.89
  JT_0C_011            0.05     49.89     49.89
  JT_0D_001            0.05     49.90     49.90
  JT_0D_002            0.05     49.90     49.90
  JT_0D_003            0.05     49.90     49.90
  JT_0D_004            0.05     49.89     49.89
  JT_0D_005            0.05     49.89     49.89
  JT_0D_006            0.05     49.89     49.89
  JT_0D_007            0.05     49.89     49.89
  JT_0D_008            0.05     49.89     49.89
  JT_0D_009            0.05     49.89     49.89
  JT_0D_010            0.05     49.89     49.89
  JT_0D_011            0.05     49.89     49.89
  JT_0E_001            0.05     49.89     49.89
  JT_0E_002            0.05     49.89     49.89
  JT_0E_003            0.05     49.89     49.89
  JT_0E_004            0.05     49.89     49.89
  JT_0E_005            0.05     49.89     49.89
  JT_0E_006            0.05     49.89     49.89
  JT_0E_007            0.05     49.89     49.89
  JT_0E_008            0.05     49.89     49.89
  JT_0E_009            0.05     49.89     49.89
  JT_0E_010            0.05     49.89     49.89
  JT_0E_011            0.05     49.89     49.89
  JT_0F_001            0.05     49.89     49.89
  JT_0F_002            0.05     49.89     49.89
  JT_0F_003            0.05     49.89     49.89
  JT_0F_004            0.05     49.89     49.89
  JT_0F_005            0.05     49.89     49.89
  JT_0F_006            0.05     49.89     49.89
  JT_0F_007            0.05     49.89     49.89
  JT_0F_008            0.05     49.89     49.89
  JT_0F_009            0.05     49.89     49.89
  JT_0F_010            0.05     49.89     49.89
  JT_0F_011            0.05     49.89     49.89
  JT_0G_001            0.05     49.89     49.89
  JT_0G_002            0.05     49.89     49.89
  JT_0G_003            0.05     49.89     49.89
  JT_0G_004            0.05     49.89     49.89
  JT_0G_005            0.05     49.89     49.89
  JT_0G_006            0.05     49.89     49.89
  JT_0G_007            0.05     49.89     49.89
  JT_0G_008            0.05     49.89     49.89
  JT_0G_009            0.05     49.89     49.89
  JT_0G_010            0.05     49.89     49.89
  JT_0G_011            0.05     49.89     49.89
  JT_0H_001            0.05     49.89     49.89
  JT_0H_002            0.05     49.89     49.89
  JT_0H_003            0.05     49.89     49.89
  JT_0H_004            0.05     49.89     49.89
  JT_0H_005            0.05     49.89     49.89
  JT_0H_006            0.05     49.89     49.89
  JT_0H_007            0.05     49.89     49.89
  JT_0H_008            0.05     49.89     49.89
  JT_0H_009            0.05     49.89     49.89
  JT_0H_010            0.05     49.89     49.89
  JT_0H_011            0.05     49.89     49.89
  JT_0I_001            0.05     49.89     49.89
  JT_0I_002            0.05     49.89     49.89
  JT_0I_003            0.05     49.89     49.89
  JT_0I_004            0.05     49.89     49.89
  JT_0I_005            0.05     49.89     49.89
  JT_0I_006            0.05     49.89     49.89
  JT_0I_007            0.05     49.89     49.89
  JT_0I_008            0.05     49.89     49.89
  JT_0I_009            0.05     49.90     49.90
  JT_0I_010            0.05     49.90     49.90
  JT_0I_011            0.05     49.90     49.90
  JT_0J_001            0.05     49.89     49.89
  JT_0J_002            0.05     49.89     49.89
  JT_0J_003            0.05     49.89     49.89
  JT_0J_004            0.05     49.89     49.89
  JT_0J_005            0.05     49.89     49.89
  JT_0J_006            0.05     49.89     49.89
  JT_0J_007            0.05     49.89     49.89
  JT_0J_008            0.05     49.90     49.90
  JT_0J_009            0.05     49.90     49.90
  JT_0J_010            0.05     49.92     49.92
  JT_0J_011            0.05     49.95     49.95
  JT_0K_001            0.05     49.89     49.89
  JT_0K_002            0.05     49.89     49.89
  JT_0K_003            0.05     49.89     49.89
  JT_0K_004            0.05     49.89     49.89
  JT_0K_005            0.05     49.89     49.89
  JT_0K_006            0.05     49.89     49.89
  JT_0K_007            0.05     49.89     49.89
  JT_0K_008            0.05     49.90     49.90
  JT_0K_009            0.05     49.91     49.91
  JT_0K_010            0.05     49.93     49.93
  JT_0K_011            0.05     49.98     49.98
  JT_02_001            0.00     49.98     49.98
  RS0001              -3.16     50.00     -0.00  Reservoir
  RS0002              -2.79     50.00     -0.00  Reservoir
   
   
  Link Results at 2:00:00 hrs:
  ----------------------------------------------
                       Flow  Velocity  Headloss
  Link                  L/s       m/s    /1000m
  ----------------------------------------------
  PS_0A_001            1.56      0.20      0.54
  PS_0A_002            0.87      0.11      0.20
  PS_0A_003            0.54      0.07      0.09
  PS_0A_004            0.35      0.04      0.04
  PS_0A_005            0.25      0.03      0.02
  PS_0A_006            0.19      0.02      0.01
  PS_0A_007            0.14      0.02      0.01
  PS_0A_008            0.10      0.01      0.00
  PS_0A_009            0.06      0.01      0.00
  PS_0B_001            0.64      0.08      0.11
  PS_0B_002            0.61      0.08      0.11
  PS_0B_003            0.47      0.06      0.07
  PS_0B_004            0.33      0.04      0.04
  PS_0B_005            0.24      0.03      0.02
  PS_0B_006            0.18      0.02      0.01
  PS_0B_007            0.13      0.02      0.01
  PS_0B_008            0.09      0.01      0.00
  PS_0B_009            0.06      0.01      0.00
  PS_0C_001            0.28      0.04      0.02
  PS_0C_002            0.37      0.05      0.04
  PS_0C_003            0.34      0.04      0.04
  PS_0C_004            0.28      0.04      0.03
  PS_0C_005            0.22      0.03      0.01
  PS_0C_006            0.16      0.02      0.01
  PS_0C_007            0.11      0.01      0.00
  PS_0C_008            0.08      0.01      0.00
  PS_0C_009            0.05      0.01      0.00
  PS_0D_001            0.15      0.02      0.01
  PS_0D_002            0.24      0.03      0.02
  PS_0D_003            0.25      0.03      0.02
  PS_0D_004            0.23      0.03      0.01
  PS_0D_005            0.18      0.02      0.01
  PS_0D_006            0.13      0.02      0.01
  PS_0D_007            0.09      0.01      0.00
  PS_0D_008            0.06      0.01      0.00
  PS_0D_009            0.04      0.00      0.00
  PS_0E_001            0.06      0.01      0.00
  PS_0E_002            0.11      0.01      0.00
  PS_0E_003            0.13      0.02      0.01
  PS_0E_004            0.13      0.02      0.01
  PS_0E_005            0.11      0.01      0.00
  PS_0E_006            0.08      0.01      0.00
  PS_0E_007            0.05      0.01      0.00
  PS_0E_008            0.03      0.00      0.00
  PS_0E_009            0.02      0.00      0.00
  PS_0F_001            0.01      0.00      0.00
  PS_0F_002            0.03      0.00      0.00
  PS_0F_003            0.04      0.01      0.00
  PS_0F_004            0.05      0.01      0.00
  PS_0F_005            0.04      0.01      0.00
  PS_0F_006            0.02      0.00      0.00
  PS_0F_007            0.01      0.00      0.00
  PS_0F_008            0.00      0.00      0.00
  PS_0F_009            0.01      0.00      0.00
  PS_0G_001            0.00      0.00      0.00
  PS_0G_002            0.00      0.00      0.00
  PS_0G_003            0.00      0.00      0.00
  PS_0G_004           -0.01      0.00      0.00
  PS_0G_005           -0.02      0.00      0.00
  PS_0G_006           -0.04      0.01      0.00
  PS_0G_007           -0.05      0.01      0.00
  PS_0G_008           -0.03      0.00      0.00
  PS_0G_009           -0.01      0.00      0.00
  PS_0H_001           -0.01      0.00      0.00
  PS_0H_002           -0.02      0.00      0.00
  PS_0H_003           -0.03      0.00      0.00
  PS_0H_004           -0.05      0.01      0.00
  PS_0H_005           -0.08      0.01      0.00
  PS_0H_006           -0.12      0.02      0.01
  PS_0H_007           -0.15      0.02      0.01
  PS_0H_008           -0.13      0.02      0.01
  PS_0H_009           -0.06      0.01      0.00
  PS_0I_001           -0.02      0.00      0.00
  PS_0I_002           -0.03      0.00      0.00
  PS_0I_003           -0.06      0.01      0.00
  PS_0I_004           -0.09      0.01      0.00
  PS_0I_005           -0.13      0.02      0.01
  PS_0I_006           -0.20      0.03      0.01
  PS_0I_007           -0.26      0.03      0.02
  PS_0I_008           -0.29      0.04      0.03
  PS_0I_009           -0.19      0.02      0.01
  PS_0J_001           -0.02      0.00      0.00
  PS_0J_002           -0.04      0.01      0.00
  PS_0J_003           -0.07      0.01      0.00
  PS_0J_004           -0.11      0.01      0.00
  PS_0J_005           -0.16      0.02      0.01
  PS_0J_006           -0.23      0.03      0.01
  PS_0J_007           -0.34      0.04      0.04
  PS_0J_008           -0.50      0.06      0.07
  PS_0J_009           -0.75      0.10      0.15
  PS_01_001            1.56      0.20      0.54
  PS_01_002            0.87      0.11      0.19
  PS_01_003            0.54      0.07      0.09
  PS_01_004            0.35      0.04      0.04
  PS_01_005            0.24      0.03      0.02
  PS_01_006            0.18      0.02      0.01
  PS_01_007            0.13      0.02      0.01
  PS_01_008            0.09      0.01      0.00
  PS_01_009            0.05      0.01      0.00
  PS_02_001            0.64      0.08      0.11
  PS_02_002            0.61      0.08      0.11
  PS_02_003            0.47      0.06      0.07
  PS_02_004            0.33      0.04      0.04
  PS_02_005            0.23      0.03      0.01
  PS_02_006            0.17      0.02      0.01
  PS_02_007            0.12      0.02      0.01
  PS_02_008            0.08      0.01      0.00
  PS_02_009            0.05      0.01      0.00
  PS_03_001            0.28      0.04      0.02
  PS_03_002            0.37      0.05      0.04
  PS_03_003            0.34      0.04      0.04
  PS_03_004            0.28      0.04      0.03
  PS_03_005            0.21      0.03      0.01
  PS_03_006            0.15      0.02      0.01
  PS_03_007            0.10      0.01      0.00
  PS_03_008            0.06      0.01      0.00
  PS_03_009            0.04      0.00      0.00
  PS_04_001            0.14      0.02      0.01
  PS_04_002            0.24      0.03      0.02
  PS_04_003            0.25      0.03      0.02
  PS_04_004            0.22      0.03      0.01
  PS_04_005            0.17      0.02      0.01
  PS_04_006            0.11      0.01      0.00
  PS_04_007            0.07      0.01      0.00
  PS_04_008            0.04      0.00      0.00
  PS_04_009            0.02      0.00      0.00
  PS_05_001            0.06      0.01      0.00
  PS_05_002            0.10      0.01      0.00
  PS_05_003            0.12      0.02      0.01
  PS_05_004            0.11      0.01      0.00
  PS_05_005            0.09      0.01      0.00
  PS_05_006            0.05      0.01      0.00
  PS_05_007            0.02      0.00      0.00
  PS_05_008            0.00      0.00      0.00
  PS_05_009           -0.00      0.00      0.00
  PS_06_001            0.01      0.00      0.00
  PS_06_002            0.02      0.00      0.00
  PS_06_003            0.03      0.00      0.00
  PS_06_004            0.03      0.00      0.00
  PS_06_005            0.02      0.00      0.00
  PS_06_006           -0.01      0.00      0.00
  PS_06_007           -0.04      0.01      0.00
  PS_06_008           -0.05      0.01      0.00
  PS_06_009           -0.03      0.00      0.00
  PS_07_001           -0.00      0.00      0.00
  PS_07_002           -0.00      0.00      0.00
  PS_07_003           -0.00      0.00      0.00
  PS_07_004           -0.02      0.00      0.00
  PS_07_005           -0.04      0.00      0.00
  PS_07_006           -0.08      0.01      0.00
  PS_07_007           -0.12      0.02      0.01
  PS_07_008           -0.15      0.02      0.01
  PS_07_009           -0.14      0.02      0.01
  PS_08_001           -0.01      0.00      0.00
  PS_08_002           -0.02      0.00      0.00
  PS_08_003           -0.03      0.00      0.00
  PS_08_004           -0.05      0.01      0.00
  PS_08_005           -0.08      0.01      0.00
  PS_08_006           -0.13      0.02      0.01
  PS_08_007           -0.20      0.03      0.01
  PS_08_008           -0.26      0.03      0.02
  PS_08_009           -0.28      0.04      0.03
  PS_09_001           -0.01      0.00      0.00
  PS_09_002           -0.03      0.00      0.00
  PS_09_003           -0.05      0.01      0.00
  PS_09_004           -0.08      0.01      0.00
  PS_09_005           -0.11      0.01      0.00
  PS_09_006           -0.16      0.02      0.01
  PS_09_007           -0.23      0.03      0.01
  PS_09_008           -0.35      0.04      0.04
  PS_09_009           -0.49      0.06      0.07
  PS_10_001           -0.02      0.00      0.00
  PS_10_002           -0.04      0.00      0.00
  PS_10_003           -0.06      0.01      0.00
  PS_10_004           -0.09      0.01      0.00
  PS_10_005           -0.13      0.02      0.01
  PS_10_006           -0.18      0.02      0.01
  PS_10_007           -0.24      0.03      0.02
  PS_10_008           -0.38      0.05      0.05
  PS_10_009           -0.92      0.12      0.21
  PS_01_010            0.03      0.00      0.00
  PS_02_010            0.02      0.00      0.00
  PS_03_010            0.02      0.00      0.00
  PS_04_010            0.01      0.00      0.00
  PS_05_010           -0.00      0.00      0.00
  PS_06_010           -0.02      0.00      0.00
  PS_07_010           -0.07      0.01      0.00
  PS_08_010           -0.17      0.02      0.01
  PS_09_010           -0.30      0.04      0.03
  PS_10_010           -0.58      0.07      0.10
  PS_11_010           -1.18      0.15      0.33
  PS_0K_001           -0.02      0.00      0.00
  PS_0K_002           -0.05      0.01      0.00
  PS_0K_003           -0.08      0.01      0.00
  PS_0K_004           -0.12      0.02      0.01
  PS_0K_005           -0.17      0.02      0.01
  PS_0K_006           -0.24      0.03      0.02
  PS_0K_007           -0.36      0.05      0.04
  PS_0K_008           -0.58      0.07      0.10
  PS_0K_009           -0.93      0.12      0.22
  PS_0A_010            0.03      0.00      0.00
  PS_0B_010            0.03      0.00      0.00
  PS_0C_010            0.02      0.00      0.00
  PS_0D_010            0.02      0.00      0.00
  PS_0E_010            0.01      0.00      0.00
  PS_0F_010            0.00      0.00      0.00
  PS_0G_010           -0.00      0.00      0.00
  PS_0H_010            0.03      0.00      0.00
  PS_0I_010            0.30      0.04      0.03
  PS_0J_010           -1.13      0.14      0.31
  PS_0K_010           -1.56      0.20      0.55
  PS_11_001           -0.02      0.00      0.00
  PS_11_002           -0.04      0.01      0.00
  PS_11_003           -0.07      0.01      0.00
  PS_11_004           -0.10      0.01      0.00
  PS_11_005           -0.14      0.02      0.01
  PS_11_006           -0.18      0.02      0.01
  PS_11_007           -0.23      0.03      0.01
  PS_11_008           -0.25      0.03      0.02
  PS_11_009           -0.00      0.02      0.55
  PT_01_001            3.16      0.04      0.01
  PT_02_001            2.79      0.04      0.01
  PRV_001              3.16      0.04      0.00  PRV
  PRV_002              2.79      0.04      0.00  PRV
   
   
  Node Results at 3:00:00 hrs:
  ----------------------------------------------
                     Demand      Head  Pressure
  Node                  L/s         m         m
  ----------------------------------------------
  JT_01_001            0.00     49.98     49.98
  JT_0A_001            0.06     49.98     49.98
  JT_0A_002            0.06     49.91     49.91
  JT_0A_003            0.06     49.89     49.89
  JT_0A_004            0.06     49.87     49.87
  JT_0A_005            0.06     49.87     49.87
  JT_0A_006            0.06     49.87     49.87
  JT_0A_007            0.06     49.87     49.87
  JT_0A_008            0.06     49.87     49.87
  JT_0A_009            0.06     49.87     49.87
  JT_0A_010            0.06     49.86     49.86
  JT_0A_011            0.06     49.86     49.86
  JT_0B_001            0.06     49.91     49.91
  JT_0B_002            0.06     49.90     49.90
  JT_0B_003            0.06     49.88     49.88
  JT_0B_004            0.06     49.87     49.87
  JT_0B_005            0.06     49.87     49.87
  JT_0B_006            0.06     49.87     49.87
  JT_0B_007            0.06     49.87     49.87
  JT_0B_008            0.06     49.87     49.87
  JT_0B_009            0.06     49.87     49.87
  JT_0B_010            0.06     49.87     49.87
  JT_0B_011            0.06     49.86     49.86
  JT_0C_001            0.06     49.89     49.89
  JT_0C_002            0.06     49.88     49.88
  JT_0C_003            0.06     49.88     49.88
  JT_0C_004            0.06     49.87     49.87
  JT_0C_005            0.06     49.87     49.87
  JT_0C_006            0.06     49.87     49.87
  JT_0C_007            0.06     49.87     49.87
  JT_0C_008            0.06     49.87     49.87
  JT_0C_009            0.06     49.87     49.87
  JT_0C_010            0.06     49.87     49.87
  JT_0C_011            0.06     49.87     49.87
  JT_0D_001            0.06     49.87     49.87
  JT_0D_002            0.06     49.87     49.87
  JT_0D_003            0.06     49.87     49.87
  JT_0D_004            0.06     49.87     49.87
  JT_0D_005            0.06     49.87     49.87
  JT_0D_006            0.06     49.87     49.87
  JT_0D_007            0.06     49.87     49.87
  JT_0D_008            0.06     49.87     49.87
  JT_0D_009            0.06     49.87     49.87
  JT_0D_010            0.06     49.87     49.87
  JT_0D_011            0.06     49.87     49.87
  JT_0E_001            0.06     49.87     49.87
  JT_0E_002            0.06     49.87     49.87
  JT_0E_003            0.06     49.87     49.87
  JT_0E_004            0.06     49.87     49.87
  JT_0E_005            0.06     49.87     49.87
  JT_0E_006            0.06     49.87     49.87
  JT_0E_007            0.06     49.87     49.87
  JT_0E_008            0.06     49.87     49.87
  JT_0E_009            0.06     49.87     49.87
  JT_0E_010            0.06     49.87     49.87
  JT_0E_011            0.06     49.87     49.87
  JT_0F_001            0.06     49.87     49.87
  JT_0F_002            0.06     49.87     49.87
  JT_0F_003            0.06     49.87     49.87
  JT_0F_004            0.06     49.87     49.87
  JT_0F_005            0.06     49.87     49.87
  JT_0F_006            0.06     49.87     49.87
  JT_0F_007            0.06     49.87     49.87
  JT_0F_008            0.06     49.87     49.87
  JT_0F_009            0.06     49.87     49.87
  JT_0F_010            0.06     49.87     49.87
  JT_0F_011            0.06     49.87     49.87
  JT_0G_001            0.06     49.87     49.87
  JT_0G_002            0.06     49.87     49.87
  JT_0G_003            0.06     49.87     49.87
  JT_0G_004            0.06     49.87     49.87
  JT_0G_005            0.06     49.87     49.87
  JT_0G_006            0.06     49.87     49.87
  JT_0G_007            0.06     49.87     49.87
  JT_0G_008            0.06     49.87     49.87
  JT_0G_009            0.06     49.87     49.87
  JT_0G_010            0.06     49.87     49.87
  JT_0G_011            0.06     49.87     49.87
  JT_0H_001            0.06     49.87     49.87
  JT_0H_002            0.06     49.87     49.87
  JT_0H_003            0.06     49.87     49.87
  JT_0H_004            0.06     49.87     49.87
  JT_0H_005            0.06     49.87     49.87
  JT_0H_006            0.06     49.87     49.87
  JT_0H_007            0.06     49.87     49.87
  JT_0H_008            0.06     49.87     49.87
  JT_0H_009            0.06     49.87     49.87
  JT_0H_010            0.06     49.87     49.87
  JT_0H_011            0.06     49.87     49.87
  JT_0I_001            0.06     49.87     49.87
  JT_0I_002            0.06     49.87     49.87
  JT_0I_003            0.06     49.87     49.87
  JT_0I_004            0.06     49.87     49.87
  JT_0I_005            0.06     49.87     49.87
  JT_0I_006            0.06     49.87     49.87
  JT_0I_007            0.06     49.87     49.87
  JT_0I_008            0.06     49.87     49.87
  JT_0I_009            0.06     49.87     49.87
  JT_0I_010            0.06     49.88     49.88
  JT_0I_011            0.06     49.87     49.87
  JT_0J_001            0.06     49.87     49.87
  JT_0J_002            0.06     49.87     49.87
  JT_0J_003            0.06     49.87     49.87
  JT_0J_004            0.06     49.87     49.87
  JT_0J_005            0.06     49.87     49.87
  JT_0J_006            0.06     49.87     49.87
  JT_0J_007            0.06     49.87     49.87
  JT_0J_008            0.06     49.87     49.87
  JT_0J_009            0.06     49.88     49.88
  JT_0J_010            0.06     49.90     49.90
  JT_0J_011            0.06     49.94     49.94
  JT_0K_001            0.06     49.87     49.87
  JT_0K_002            0.06     49.87     49.87
  JT_0K_003            0.06     49.87     49.87
  JT_0K_004            0.06     49.87     49.87
  JT_0K_005            0.06     49.87     49.87
  JT_0K_006            0.06     49.87     49.87
  JT_0K_007            0.06     49.87     49.87
  JT_0K_008            0.06     49.87     49.87
  JT_0K_009            0.06     49.89     49.89
  JT_0K_010            0.06     49.91     49.91
  JT_0K_011            0.06     49.98     49.98
  JT_02_001            0.00     49.98     49.98
  RS0001              -3.55     50.00     -0.00  Reservoir
  RS0002              -3.13     50.00     -0.00  Reservoir
   
   
  Link Results at 3:00:00 hrs:
  ----------------------------------------------
                       Flow  Velocity  Headloss
  Link                  L/s       m/s    /1000m
  ----------------------------------------------
  PS_0A_001            1.75      0.22      0.67
  PS_0A_002            0.97      0.12      0.24
  PS_0A_003            0.61      0.08      0.11
  PS_0A_004            0.40      0.05      0.05
  PS_0A_005            0.27      0.03      0.02
  PS_0A_006            0.20      0.03      0.01
  PS_0A_007            0.15      0.02      0.01
  PS_0A_008            0.11      0.01      0.00
  PS_0A_009            0.07      0.01      0.00
  PS_0B_001            0.72      0.09      0.14
  PS_0B_002            0.69      0.09      0.13
  PS_0B_003            0.53      0.07      0.08
  PS_0B_004            0.38      0.05      0.05
  PS_0B_005            0.26      0.03      0.02
  PS_0B_006            0.20      0.02      0.01
  PS_0B_007            0.14      0.02      0.01
  PS_0B_008            0.10      0.01      0.00
  PS_0B_009            0.06      0.01      0.00
  PS_0C_001            0.30      0.04      0.03
  PS_0C_002            0.41      0.05      0.05
  PS_0C_003            0.39      0.05      0.05
  PS_0C_004            0.31      0.04      0.03
  PS_0C_005            0.24      0.03      0.02
  PS_0C_006            0.18      0.02      0.01
  PS_0C_007            0.13      0.02      0.01
  PS_0C_008            0.09      0.01      0.00
  PS_0C_009            0.06      0.01      0.00
  PS_0D_001            0.16      0.02      0.01
  PS_0D_002            0.26      0.03      0.02
  PS_0D_003            0.27      0.03      0.02
  PS_0D_004            0.25      0.03      0.02
  PS_0D_005            0.21      0.03      0.01
  PS_0D_006            0.15      0.02      0.01
  PS_0D_007            0.10      0.01      0.00
  PS_0D_008            0.07      0.01      0.00
  PS_0D_009            0.04      0.01      0.00
  PS_0E_001            0.07      0.01      0.00
  PS_0E_002            0.14      0.02      0.01
  PS_0E_003            0.16      0.02      0.01
  PS_0E_004            0.16      0.02      0.01
  PS_0E_005            0.14      0.02      0.01
  PS_0E_006            0.09      0.01      0.00
  PS_0E_007            0.06      0.01      0.00
  PS_0E_008            0.04      0.01      0.00
  PS_0E_009            0.03      0.00      0.00
  PS_0F_001            0.02      0.00      0.00
  PS_0F_002            0.03      0.00      0.00
  PS_0F_003            0.04      0.01      0.00
  PS_0F_004            0.05      0.01      0.00
  PS_0F_005            0.05      0.01      0.00
  PS_0F_006            0.03      0.00      0.00
  PS_0F_007            0.01      0.00      0.00
  PS_0F_008            0.01      0.00      0.00
  PS_0F_009            0.01      0.00      0.00
  PS_0G_001           -0.00      0.00      0.00
  PS_0G_002           -0.00      0.00      0.00
  PS_0G_003           -0.00      0.00      0.00
  PS_0G_004           -0.01      0.00      0.00
  PS_0G_005           -0.03      0.00      0.00
  PS_0G_006           -0.05      0.01      0.00
  PS_0G_007           -0.05      0.01      0.00
  PS_0G_008           -0.03      0.00      0.00
  PS_0G_009           -0.02      0.00      0.00
  PS_0H_001           -0.01      0.00      0.00
  PS_0H_002           -0.02      0.00      0.00
  PS_0H_003           -0.04      0.00      0.00
  PS_0H_004           -0.06      0.01      0.00
  PS_0H_005           -0.10      0.01      0.00
  PS_0H_006           -0.15      0.02      0.01
  PS_0H_007           -0.18      0.02      0.01
  PS_0H_008           -0.17      0.02      0.01
  PS_0H_009           -0.08      0.01      0.00
  PS_0I_001           -0.02      0.00      0.00
  PS_0I_002           -0.04      0.00      0.00
  PS_0I_003           -0.07      0.01      0.00
  PS_0I_004           -0.10      0.01      0.00
  PS_0I_005           -0.15      0.02      0.01
  PS_0I_006           -0.22      0.03      0.01
  PS_0I_007           -0.28      0.04      0.03
  PS_0I_008           -0.31      0.04      0.03
  PS_0I_009           -0.21      0.03      0.01
  PS_0J_001           -0.02      0.00      0.00
  PS_0J_002           -0.05      0.01      0.00
  PS_0J_003           -0.08      0.01      0.00
  PS_0J_004           -0.13      0.02      0.01
  PS_0J_005           -0.18      0.02      0.01
  PS_0J_006           -0.25      0.03      0.02
  PS_0J_007           -0.39      0.05      0.05
  PS_0J_008           -0.56      0.07      0.09
  PS_0J_009           -0.84      0.11      0.18
  PS_01_001            1.75      0.22      0.67
  PS_01_002            0.97      0.12      0.24
  PS_01_003            0.61      0.08      0.11
  PS_01_004            0.40      0.05      0.05
  PS_01_005            0.27      0.03      0.02
  PS_01_006            0.19      0.02      0.01
  PS_01_007            0.14      0.02      0.01
  PS_01_008            0.10      0.01      0.00
  PS_01_009            0.06      0.01      0.00
  PS_02_001            0.72      0.09      0.14
  PS_02_002            0.69      0.09      0.13
  PS_02_003            0.53      0.07      0.08
  PS_02_004            0.38      0.05      0.05
  PS_02_005            0.26      0.03      0.02
  PS_02_006            0.19      0.02      0.01
  PS_02_007            0.13      0.02      0.01
  PS_02_008            0.09      0.01      0.00
  PS_02_009            0.05      0.01      0.00
  PS_03_001            0.30      0.04      0.03
  PS_03_002            0.41      0.05      0.05
  PS_03_003            0.38      0.05      0.05
  PS_03_004            0.31      0.04      0.03
  PS_03_005            0.23      0.03      0.01
  PS_03_006            0.17      0.02      0.01
  PS_03_007            0.11      0.01      0.00
  PS_03_008            0.07      0.01      0.00
  PS_03_009            0.04      0.01      0.00
  PS_04_001            0.16      0.02      0.01
  PS_04_002            0.25      0.03      0.02
  PS_04_003            0.27      0.03      0.02
  PS_04_004            0.24      0.03      0.02
  PS_04_005            0.19      0.02      0.01
  PS_04_006            0.12      0.02      0.01
  PS_04_007            0.08      0.01      0.00
  PS_04_008            0.04      0.01      0.00
  PS_04_009            0.02      0.00      0.00
  PS_05_001            0.07      0.01      0.00
  PS_05_002            0.14      0.02      0.01
  PS_05_003            0.15      0.02      0.01
  PS_05_004            0.14      0.02      0.01
  PS_05_005            0.11      0.01      0.00
  PS_05_006            0.06      0.01      0.00
  PS_05_007            0.02      0.00      0.00
  PS_05_008            0.00      0.00      0.00
  PS_05_009            0.00      0.00      0.00
  PS_06_001            0.01      0.00      0.00
  PS_06_002            0.02      0.00      0.00
  PS_06_003            0.03      0.00      0.00
  PS_06_004            0.03      0.00      0.00
  PS_06_005            0.02      0.00      0.00
  PS_06_006           -0.01      0.00      0.00
  PS_06_007           -0.05      0.01      0.00
  PS_06_008           -0.05      0.01      0.00
  PS_06_009           -0.03      0.00      0.00
  PS_07_001           -0.00      0.00      0.00
  PS_07_002           -0.01      0.00      0.00
  PS_07_003           -0.01      0.00      0.00
  PS_07_004           -0.02      0.00      0.00
  PS_07_005           -0.05      0.01      0.00
  PS_07_006           -0.09      0.01      0.00
  PS_07_007           -0.15      0.02      0.01
  PS_07_008           -0.18      0.02      0.01
  PS_07_009           -0.17      0.02      0.01
  PS_08_001           -0.01      0.00      0.00
  PS_08_002           -0.02      0.00      0.00
  PS_08_003           -0.04      0.00      0.00
  PS_08_004           -0.06      0.01      0.00
  PS_08_005           -0.10      0.01      0.00
  PS_08_006           -0.15      0.02      0.01
  PS_08_007           -0.22      0.03      0.01
  PS_08_008           -0.28      0.04      0.03
  PS_08_009           -0.30      0.04      0.03
  PS_09_001           -0.02      0.00      0.00
  PS_09_002           -0.03      0.00      0.00
  PS_09_003           -0.06      0.01      0.00
  PS_09_004           -0.09      0.01      0.00
  PS_09_005           -0.13      0.02      0.01
  PS_09_006           -0.18      0.02      0.01
  PS_09_007           -0.25      0.03      0.02
  PS_09_008           -0.40      0.05      0.05
  PS_09_009           -0.55      0.07      0.09
  PS_10_001           -0.02      0.00      0.00
  PS_10_002           -0.04      0.01      0.00
  PS_10_003           -0.07      0.01      0.00
  PS_10_004           -0.10      0.01      0.00
  PS_10_005           -0.14      0.02      0.01
  PS_10_006           -0.20      0.02      0.01
  PS_10_007           -0.26      0.03      0.02
  PS_10_008           -0.43      0.06      0.06
  PS_10_009           -1.03      0.13      0.26
  PS_01_010            0.03      0.00      0.00
  PS_02_010            0.03      0.00      0.00
  PS_03_010            0.02      0.00      0.00
  PS_04_010            0.01      0.00      0.00
  PS_05_010            0.00      0.00      0.00
  PS_06_010           -0.02      0.00      0.00
  PS_07_010           -0.09      0.01      0.00
  PS_08_010           -0.19      0.02      0.01
  PS_09_010           -0.33      0.04      0.04
  PS_10_010           -0.66      0.08      0.12
  PS_11_010           -1.33      0.17      0.41
  PS_0K_001           -0.03      0.00      0.00
  PS_0K_002           -0.06      0.01      0.00
  PS_0K_003           -0.09      0.01      0.00
  PS_0K_004           -0.14      0.02      0.01
  PS_0K_005           -0.19      0.02      0.01
  PS_0K_006           -0.26      0.03      0.02
  PS_0K_007           -0.41      0.05      0.05
  PS_0K_008           -0.65      0.08      0.12
  PS_0K_009           -1.04      0.13      0.27
  PS_0A_010            0.03      0.00      0.00
  PS_0B_010            0.03      0.00      0.00
  PS_0C_010            0.03      0.00      0.00
  PS_0D_010            0.02      0.00      0.00
  PS_0E_010            0.01      0.00      0.00
  PS_0F_010            0.01      0.00      0.00
  PS_0G_010           -0.00      0.00      0.00
  PS_0H_010            0.04      0.00      0.00
  PS_0I_010            0.33      0.04      0.04
  PS_0J_010           -1.27      0.16      0.38
  PS_0K_010           -1.75      0.22      0.67
  PS_11_001           -0.02      0.00      0.00
  PS_11_002           -0.05      0.01      0.00
  PS_11_003           -0.08      0.01      0.00
  PS_11_004           -0.11      0.01      0.00
  PS_11_005           -0.15      0.02      0.01
  PS_11_006           -0.20      0.03      0.01
  PS_11_007           -0.26      0.03      0.02
  PS_11_008           -0.28      0.04      0.02
  PS_11_009           -0.00      0.03      0.68
  PT_01_001            3.55      0.05      0.01
  PT_02_001            3.13      0.04      0.01
  PRV_001              3.55      0.05      0.00  PRV
  PRV_002              3.13      0.04      0.00  PRV
   
   
  Node Results at 4:00:00 hrs:
  ----------------------------------------------
                     Demand      Head  Pressure
  Node                  L/s         m         m
  ----------------------------------------------
  JT_01_001            0.00     49.94     49.94
  JT_0A_001            0.09     49.94     49.94
  JT_0A_002            0.09     49.79     49.79
  JT_0A_003            0.09     49.73     49.73
  JT_0A_004            0.09     49.71     49.71
  JT_0A_005            0.09     49.70     49.70
  JT_0A_006            0.09     49.69     49.69
  JT_0A_007            0.09     49.69     49.69
  JT_0A_008            0.09     49.69     49.69
  JT_0A_009            0.09     49.69     49.69
  JT_0A_010            0.09     49.68     49.68
  JT_0A_011            0.09     49.68     49.68
  JT_0B_001            0.09     49.79     49.79
  JT_0B_002            0.09     49.76     49.76
  JT_0B_003            0.09     49.73     49.73
  JT_0B_004            0.09     49.71     49.71
  JT_0B_005            0.09     49.70     49.70
  JT_0B_006            0.09     49.69     49.69
  JT_0B_007            0.09     49.69     49.69
  JT_0B_008            0.09     49.69     49.69
  JT_0B_009            0.09     49.69     49.69
  JT_0B_010            0.09     49.69     49.69
  JT_0B_011            0.09     49.68     49.68
  JT_0C_001            0.09     49.73     49.73
  JT_0C_002            0.09     49.73     49.73
  JT_0C_003            0.09     49.71     49.71
  JT_0C_004            0.09     49.70     49.70
  JT_0C_005            0.09     49.69     49.69
  JT_0C_006            0.09     49.69     49.69
  JT_0C_007            0.09     49.69     49.69
  JT_0C_008            0.09     49.69     49.69
  JT_0C_009            0.09     49.69     49.69
  JT_0C_010            0.09     49.69     49.69
  JT_0C_011            0.09     49.69     49.69
  JT_0D_001            0.09     49.71     49.71
  JT_0D_002            0.09     49.71     49.71
  JT_0D_003            0.09     49.70     49.70
  JT_0D_004            0.09     49.70     49.70
  JT_0D_005            0.09     49.69     49.69
  JT_0D_006            0.09     49.69     49.69
  JT_0D_007            0.09     49.69     49.69
  JT_0D_008            0.09     49.69     49.69
  JT_0D_009            0.09     49.69     49.69
  JT_0D_010            0.09     49.69     49.69
  JT_0D_011            0.09     49.69     49.69
  JT_0E_001            0.09     49.70     49.70
  JT_0E_002            0.09     49.70     49.70
  JT_0E_003            0.09     49.69     49.69
  JT_0E_004            0.09     49.69     49.69
  JT_0E_005            0.09     49.69     49.69
  JT_0E_006            0.09     49.69     49.69
  JT_0E_007            0.09     49.69     49.69
  JT_0E_008            0.09     49.69     49.69
  JT_0E_009            0.09     49.69     49.69
  JT_0E_010            0.09     49.69     49.69
  JT_0E_011            0.09     49.69     49.69
  JT_0F_001            0.09     49.69     49.69
  JT_0F_002            0.09     49.69     49.69
  JT_0F_003            0.09     49.69     49.69
  JT_0F_004            0.09     49.69     49.69
  JT_0F_005            0.09     49.69     49.69
  JT_0F_006            0.09     49.69     49.69
  JT_0F_007            0.09     49.69     49.69
  JT_0F_008            0.09     49.69     49.69
  JT_0F_009            0.09     49.69     49.69
  JT_0F_010            0.09     49.69     49.69
  JT_0F_011            0.09     49.69     49.69
  JT_0G_001            0.09     49.69     49.69
  JT_0G_002            0.09     49.69     49.69
  JT_0G_003            0.09     49.69     49.69
  JT_0G_004            0.09     49.69     49.69
  JT_0G_005            0.09     49.69     49.69
  JT_0G_006            0.09     49.69     49.69
  JT_0G_007            0.09     49.69     49.69
  JT_0G_008            0.09     49.69     49.69
  JT_0G_009            0.09     49.69     49.69
  JT_0G_010            0.09     49.69     49.69
  JT_0G_011            0.09     49.69     49.69
  JT_0H_001            0.09     49.69     49.69
  JT_0H_002            0.09     49.69     49.69
  JT_0H_003            0.09     49.69     49.69
  JT_0H_004            0.09     49.69     49.69
  JT_0H_005            0.09     49.69     49.69
  JT_0H_006            0.09     49.69     49.69
  JT_0H_007            0.09     49.69     49.69
  JT_0H_008            0.09     49.69     49.69
  JT_0H_009            0.09     49.70     49.70
  JT_0H_010            0.09     49.70     49.70
  JT_0H_011            0.09     49.70     49.70
  JT_0I_001            0.09     49.69     49.69
  JT_0I_002            0.09     49.69     49.69
  JT_0I_003            0.09     49.69     49.69
  JT_0I_004            0.09     49.69     49.69
  JT_0I_005            0.09     49.69     49.69
  JT_0I_006            0.09     49.69     49.69
  JT_0I_007            0.09     49.69     49.69
  JT_0I_008            0.09     49.70     49.70
  JT_0I_009            0.09     49.71     49.71
  JT_0I_010            0.09     49.71     49.71
  JT_0I_011            0.09     49.70     49.70
  JT_0J_001            0.09     49.69     49.69
  JT_0J_002            0.09     49.69     49.69
  JT_0J_003            0.09     49.69     49.69
  JT_0J_004            0.09     49.69     49.69
  JT_0J_005            0.09     49.69     49.69
  JT_0J_006            0.09     49.69     49.69
  JT_0J_007            0.09     49.70     49.70
  JT_0J_008            0.09     49.71     49.71
  JT_0J_009            0.09     49.73     49.73
  JT_0J_010            0.09     49.77     49.77
  JT_0J_011            0.09     49.86     49.86
  JT_0K_001            0.09     49.69     49.69
  JT_0K_002            0.09     49.69     49.69
  JT_0K_003            0.09     49.69     49.69
  JT_0K_004            0.09     49.69     49.69
  JT_0K_005            0.09     49.69     49.69
  JT_0K_006            0.09     49.69     49.69
  JT_0K_007            0.09     49.70     49.70
  JT_0K_008            0.09     49.71     49.71
  JT_0K_009            0.09     49.74     49.74
  JT_0K_010            0.09     49.80     49.80
  JT_0K_011            0.09     49.96     49.96
  JT_02_001            0.00     49.96     49.96
  RS0001              -5.70     50.00     -0.00  Reservoir
  RS0002              -5.04     50.00     -0.00  Reservoir
   
   
  Link Results at 4:00:00 hrs:
  ----------------------------------------------
                       Flow  Velocity  Headloss
  Link                  L/s       m/s    /1000m
  ----------------------------------------------
  PS_0A_001            2.81      0.36      1.57
  PS_0A_002            1.56      0.20      0.55
  PS_0A_003            0.98      0.13      0.24
  PS_0A_004            0.65      0.08      0.12
  PS_0A_005            0.44      0.06      0.06
  PS_0A_006            0.30      0.04      0.03
  PS_0A_007            0.22      0.03      0.01
  PS_0A_008            0.16      0.02      0.01
  PS_0A_009            0.10      0.01      0.00
  PS_0B_001            1.16      0.15      0.32
  PS_0B_002            1.11      0.14      0.30
  PS_0B_003            0.85      0.11      0.19
  PS_0B_004            0.62      0.08      0.11
  PS_0B_005            0.43      0.05      0.06
  PS_0B_006            0.29      0.04      0.03
  PS_0B_007            0.21      0.03      0.01
  PS_0B_008            0.15      0.02      0.01
  PS_0B_009            0.10      0.01      0.00
  PS_0C_001            0.49      0.06      0.07
  PS_0C_002            0.67      0.09      0.12
  PS_0C_003            0.63      0.08      0.11
  PS_0C_004            0.51      0.06      0.08
  PS_0C_005            0.38      0.05      0.05
  PS_0C_006            0.27      0.03      0.02
  PS_0C_007            0.20      0.03      0.01
  PS_0C_008            0.14      0.02      0.01
  PS_0C_009            0.09      0.01      0.00
  PS_0D_001            0.24      0.03      0.02
  PS_0D_002            0.38      0.05      0.05
  PS_0D_003            0.42      0.05      0.05
  PS_0D_004            0.37      0.05      0.05
  PS_0D_005            0.30      0.04      0.03
  PS_0D_006            0.24      0.03      0.02
  PS_0D_007            0.18      0.02      0.01
  PS_0D_008            0.13      0.02      0.01
  PS_0D_009            0.08      0.01      0.00
  PS_0E_001            0.13      0.02      0.01
  PS_0E_002            0.24      0.03      0.01
  PS_0E_003            0.27      0.03      0.02
  PS_0E_004            0.26      0.03      0.02
  PS_0E_005            0.23      0.03      0.01
  PS_0E_006            0.19      0.02      0.01
  PS_0E_007            0.14      0.02      0.01
  PS_0E_008            0.10      0.01      0.00
  PS_0E_009            0.07      0.01      0.00
  PS_0F_001            0.06      0.01      0.00
  PS_0F_002            0.11      0.01      0.00
  PS_0F_003            0.13      0.02      0.01
  PS_0F_004            0.11      0.01      0.00
  PS_0F_005            0.10      0.01      0.00
  PS_0F_006            0.07      0.01      0.00
  PS_0F_007            0.07      0.01      0.00
  PS_0F_008            0.04      0.01      0.00
  PS_0F_009            0.03      0.00      0.00
  PS_0G_001           -0.01      0.00      0.00
  PS_0G_002           -0.02      0.00      0.00
  PS_0G_003           -0.03      0.00      0.00
  PS_0G_004           -0.04      0.01      0.00
  PS_0G_005           -0.06      0.01      0.00
  PS_0G_006           -0.09      0.01      0.00
  PS_0G_007           -0.13      0.02      0.01
  PS_0G_008           -0.13      0.02      0.01
  PS_0G_009           -0.07      0.01      0.00
  PS_0H_001           -0.03      0.00      0.00
  PS_0H_002           -0.06      0.01      0.00
  PS_0H_003           -0.08      0.01      0.00
  PS_0H_004           -0.12      0.02      0.01
  PS_0H_005           -0.19      0.02      0.01
  PS_0H_006           -0.24      0.03      0.02
  PS_0H_007           -0.29      0.04      0.03
  PS_0H_008           -0.27      0.03      0.02
  PS_0H_009           -0.14      0.02      0.01
  PS_0I_001           -0.04      0.00      0.00
  PS_0I_002           -0.07      0.01      0.00
  PS_0I_003           -0.12      0.01      0.00
  PS_0I_004           -0.17      0.02      0.01
  PS_0I_005           -0.24      0.03      0.02
  PS_0I_006           -0.34      0.04      0.04
  PS_0I_007           -0.44      0.06      0.06
  PS_0I_008           -0.49      0.06      0.07
  PS_0I_009           -0.32      0.04      0.03
  PS_0J_001           -0.04      0.01      0.00
  PS_0J_002           -0.08      0.01      0.00
  PS_0J_003           -0.13      0.02      0.01
  PS_0J_004           -0.19      0.02      0.01
  PS_0J_005           -0.27      0.03      0.02
  PS_0J_006           -0.42      0.05      0.05
  PS_0J_007           -0.62      0.08      0.11
  PS_0J_008           -0.91      0.12      0.21
  PS_0J_009           -1.36      0.17      0.43
  PS_01_001            2.81      0.36      1.57
  PS_01_002            1.56      0.20      0.55
  PS_01_003            0.98      0.13      0.24
  PS_01_004            0.65      0.08      0.12
  PS_01_005            0.43      0.06      0.06
  PS_01_006            0.29      0.04      0.03
  PS_01_007            0.21      0.03      0.01
  PS_01_008            0.15      0.02      0.01
  PS_01_009            0.09      0.01      0.00
  PS_02_001            1.16      0.15      0.32
  PS_02_002            1.11      0.14      0.30
  PS_02_003            0.84      0.11      0.18
  PS_02_004            0.61      0.08      0.11
  PS_02_005            0.42      0.05      0.06
  PS_02_006            0.28      0.04      0.02
  PS_02_007            0.20      0.03      0.01
  PS_02_008            0.14      0.02      0.01
  PS_02_009            0.09      0.01      0.00
  PS_03_001            0.49      0.06      0.07
  PS_03_002            0.67      0.08      0.12
  PS_03_003            0.62      0.08      0.11
  PS_03_004            0.50      0.06      0.07
  PS_03_005            0.37      0.05      0.04
  PS_03_006            0.26      0.03      0.02
  PS_03_007            0.18      0.02      0.01
  PS_03_008            0.12      0.02      0.01
  PS_03_009            0.08      0.01      0.00
  PS_04_001            0.24      0.03      0.02
  PS_04_002            0.38      0.05      0.05
  PS_04_003            0.41      0.05      0.05
  PS_04_004            0.37      0.05      0.04
  PS_04_005            0.29      0.04      0.03
  PS_04_006            0.22      0.03      0.01
  PS_04_007            0.14      0.02      0.01
  PS_04_008            0.09      0.01      0.00
  PS_04_009            0.06      0.01      0.00
  PS_05_001            0.13      0.02      0.01
  PS_05_002            0.23      0.03      0.01
  PS_05_003            0.27      0.03      0.02
  PS_05_004            0.26      0.03      0.02
  PS_05_005            0.21      0.03      0.01
  PS_05_006            0.13      0.02      0.01
  PS_05_007            0.06      0.01      0.00
  PS_05_008            0.04      0.01      0.00
  PS_05_009            0.02      0.00      0.00
  PS_06_001            0.05      0.01      0.00
  PS_06_002            0.10      0.01      0.00
  PS_06_003            0.12      0.02      0.01
  PS_06_004            0.09      0.01      0.00
  PS_06_005            0.03      0.00      0.00
  PS_06_006           -0.03      0.00      0.00
  PS_06_007           -0.09      0.01      0.00
  PS_06_008           -0.13      0.02      0.01
  PS_06_009           -0.12      0.02      0.01
  PS_07_001           -0.01      0.00      0.00
  PS_07_002           -0.02      0.00      0.00
  PS_07_003           -0.04      0.01      0.00
  PS_07_004           -0.07      0.01      0.00
  PS_07_005           -0.11      0.01      0.00
  PS_07_006           -0.19      0.02      0.01
  PS_07_007           -0.24      0.03      0.02
  PS_07_008           -0.29      0.04      0.03
  PS_07_009           -0.27      0.03      0.02
  PS_08_001           -0.03      0.00      0.00
  PS_08_002           -0.06      0.01      0.00
  PS_08_003           -0.09      0.01      0.00
  PS_08_004           -0.12      0.02      0.01
  PS_08_005           -0.18      0.02      0.01
  PS_08_006           -0.24      0.03      0.02
  PS_08_007           -0.34      0.04      0.04
  PS_08_008           -0.44      0.06      0.06
  PS_08_009           -0.48      0.06      0.07
  PS_09_001           -0.03      0.00      0.00
  PS_09_002           -0.07      0.01      0.00
  PS_09_003           -0.10      0.01      0.00
  PS_09_004           -0.15      0.02      0.01
  PS_09_005           -0.20      0.03      0.01
  PS_09_006           -0.28      0.04      0.02
  PS_09_007           -0.42      0.05      0.05
  PS_09_008           -0.63      0.08      0.11
  PS_09_009           -0.90      0.11      0.21
  PS_10_001           -0.04      0.00      0.00
  PS_10_002           -0.07      0.01      0.00
  PS_10_003           -0.12      0.01      0.00
  PS_10_004           -0.16      0.02      0.01
  PS_10_005           -0.22      0.03      0.01
  PS_10_006           -0.29      0.04      0.03
  PS_10_007           -0.43      0.05      0.06
  PS_10_008           -0.72      0.09      0.14
  PS_10_009           -1.65      0.21      0.60
  PS_01_010            0.05      0.01      0.00
  PS_02_010            0.04      0.01      0.00
  PS_03_010            0.04      0.00      0.00
  PS_04_010            0.03      0.00      0.00
  PS_05_010            0.01      0.00      0.00
  PS_06_010           -0.06      0.01      0.00
  PS_07_010           -0.16      0.02      0.01
  PS_08_010           -0.28      0.04      0.02
  PS_09_010           -0.54      0.07      0.08
  PS_10_010           -1.05      0.13      0.27
  PS_11_010           -2.14      0.27      0.96
  PS_0K_001           -0.04      0.01      0.00
  PS_0K_002           -0.09      0.01      0.00
  PS_0K_003           -0.14      0.02      0.01
  PS_0K_004           -0.20      0.03      0.01
  PS_0K_005           -0.28      0.04      0.03
  PS_0K_006           -0.43      0.06      0.06
  PS_0K_007           -0.68      0.09      0.13
  PS_0K_008           -1.05      0.13      0.27
  PS_0K_009           -1.67      0.21      0.62
  PS_0A_010            0.05      0.01      0.00
  PS_0B_010            0.05      0.01      0.00
  PS_0C_010            0.05      0.01      0.00
  PS_0D_010            0.04      0.01      0.00
  PS_0E_010            0.03      0.00      0.00
  PS_0F_010            0.01      0.00      0.00
  PS_0G_010           -0.03      0.00      0.00
  PS_0H_010            0.06      0.01      0.00
  PS_0I_010            0.52      0.07      0.08
  PS_0J_010           -2.04      0.26      0.89
  PS_0K_010           -2.81      0.36      1.57
  PS_11_001           -0.04      0.00      0.00
  PS_11_002           -0.08      0.01      0.00
  PS_11_003           -0.12      0.02      0.01
  PS_11_004           -0.17      0.02      0.01
  PS_11_005           -0.22      0.03      0.01
  PS_11_006           -0.30      0.04      0.03
  PS_11_007           -0.41      0.05      0.05
  PS_11_008           -0.44      0.06      0.06
  PS_11_009           -0.01      0.07      1.57
  PT_01_001            5.70      0.08      0.03
  PT_02_001            5.04      0.07      0.02
  PRV_001              5.70      0.08      0.00  PRV
  PRV_002              5.04      0.07      0.00  PRV
   
   
  Node Results at 5:00:00 hrs:
  ----------------------------------------------
                     Demand      Head  Pressure
  Node                  L/s         m         m
  ----------------------------------------------
  JT_01_001            0.00     49.86     49.86
  JT_0A_001            0.15     49.86     49.86
  JT_0A_002            0.15     49.44     49.44
  JT_0A_003            0.15     49.30     49.30
  JT_0A_004            0.15     49.24     49.24
  JT_0A_005            0.15     49.21     49.21
  JT_0A_006            0.15     49.19     49.19
  JT_0A_007            0.15     49.18     49.18
  JT_0A_008            0.15     49.18     49.18
  JT_0A_009            0.15     49.18     49.18
  JT_0A_010            0.15     49.18     49.18
  JT_0A_011            0.15     49.18     49.18
  JT_0B_001            0.15     49.44     49.44
  JT_0B_002            0.15     49.36     49.36
  JT_0B_003            0.15     49.28     49.28
  JT_0B_004            0.15     49.23     49.23
  JT_0B_005            0.15     49.21     49.21
  JT_0B_006            0.15     49.19     49.19
  JT_0B_007            0.15     49.18     49.18
  JT_0B_008            0.15     49.18     49.18
  JT_0B_009            0.15     49.18     49.18
  JT_0B_010            0.15     49.18     49.18
  JT_0B_011            0.15     49.18     49.18
  JT_0C_001            0.15     49.30     49.30
  JT_0C_002            0.15     49.28     49.28
  JT_0C_003            0.15     49.25     49.25
  JT_0C_004            0.15     49.22     49.22
  JT_0C_005            0.15     49.20     49.20
  JT_0C_006            0.15     49.19     49.19
  JT_0C_007            0.15     49.18     49.18
  JT_0C_008            0.15     49.18     49.18
  JT_0C_009            0.15     49.18     49.18
  JT_0C_010            0.15     49.18     49.18
  JT_0C_011            0.15     49.18     49.18
  JT_0D_001            0.15     49.24     49.24
  JT_0D_002            0.15     49.23     49.23
  JT_0D_003            0.15     49.22     49.22
  JT_0D_004            0.15     49.21     49.21
  JT_0D_005            0.15     49.20     49.20
  JT_0D_006            0.15     49.19     49.19
  JT_0D_007            0.15     49.18     49.18
  JT_0D_008            0.15     49.18     49.18
  JT_0D_009            0.15     49.18     49.18
  JT_0D_010            0.15     49.18     49.18
  JT_0D_011            0.15     49.18     49.18
  JT_0E_001            0.15     49.21     49.21
  JT_0E_002            0.15     49.21     49.21
  JT_0E_003            0.15     49.20     49.20
  JT_0E_004            0.15     49.20     49.20
  JT_0E_005            0.15     49.19     49.19
  JT_0E_006            0.15     49.19     49.19
  JT_0E_007            0.15     49.19     49.19
  JT_0E_008            0.15     49.18     49.18
  JT_0E_009            0.15     49.18     49.18
  JT_0E_010            0.15     49.18     49.18
  JT_0E_011            0.15     49.18     49.18
  JT_0F_001            0.15     49.19     49.19
  JT_0F_002            0.15     49.19     49.19
  JT_0F_003            0.15     49.19     49.19
  JT_0F_004            0.15     49.19     49.19
  JT_0F_005            0.15     49.19     49.19
  JT_0F_006            0.15     49.19     49.19
  JT_0F_007            0.15     49.19     49.19
  JT_0F_008            0.15     49.19     49.19
  JT_0F_009            0.15     49.19     49.19
  JT_0F_010            0.15     49.19     49.19
  JT_0F_011            0.15     49.19     49.19
  JT_0G_001            0.15     49.19     49.19
  JT_0G_002            0.15     49.19     49.19
  JT_0G_003            0.15     49.19     49.19
  JT_0G_004            0.15     49.19     49.19
  JT_0G_005            0.15     49.19     49.19
  JT_0G_006            0.15     49.19     49.19
  JT_0G_007            0.15     49.19     49.19
  JT_0G_008            0.15     49.19     49.19
  JT_0G_009            0.15     49.19     49.19
  JT_0G_010            0.15     49.19     49.19
  JT_0G_011            0.15     49.19     49.19
  JT_0H_001            0.15     49.18     49.18
  JT_0H_002            0.15     49.18     49.18
  JT_0H_003            0.15     49.18     49.18
  JT_0H_004            0.15     49.18     49.18
  JT_0H_005            0.15     49.19     49.19
  JT_0H_006            0.15     49.19     49.19
  JT_0H_007            0.15     49.19     49.19
  JT_0H_008            0.15     49.20     49.20
  JT_0H_009            0.15     49.21     49.21
  JT_0H_010            0.15     49.21     49.21
  JT_0H_011            0.15     49.21     49.21
  JT_0I_001            0.15     49.18     49.18
  JT_0I_002            0.15     49.18     49.18
  JT_0I_003            0.15     49.18     49.18
  JT_0I_004            0.15     49.18     49.18
  JT_0I_005            0.15     49.19     49.19
  JT_0I_006            0.15     49.19     49.19
  JT_0I_007            0.15     49.20     49.20
  JT_0I_008            0.15     49.22     49.22
  JT_0I_009            0.15     49.23     49.23
  JT_0I_010            0.15     49.24     49.24
  JT_0I_011            0.15     49.22     49.22
  JT_0J_001            0.15     49.18     49.18
  JT_0J_002            0.15     49.18     49.18
  JT_0J_003            0.15     49.18     49.18
  JT_0J_004            0.15     49.18     49.18
  JT_0J_005            0.15     49.19     49.19
  JT_0J_006            0.15     49.19     49.19
  JT_0J_007            0.15     49.21     49.21
  JT_0J_008            0.15     49.23     49.23
  JT_0J_009            0.15     49.29     49.29
  JT_0J_010            0.15     49.40     49.40
  JT_0J_011            0.15     49.63     49.63
  JT_0K_001            0.15     49.18     49.18
  JT_0K_002            0.15     49.18     49.18
  JT_0K_003            0.15     49.18     49.18
  JT_0K_004            0.15     49.18     49.18
  JT_0K_005            0.15     49.19     49.19
  JT_0K_006            0.15     49.19     49.19
  JT_0K_007            0.15     49.21     49.21
  JT_0K_008            0.15     49.24     49.24
  JT_0K_009            0.15     49.31     49.31
  JT_0K_010            0.15     49.47     49.47
  JT_0K_011            0.15     49.88     49.88
  JT_02_001            0.00     49.88     49.88
  RS0001              -9.71     50.00     -0.00  Reservoir
  RS0002              -8.59     50.00     -0.00  Reservoir
   
   
  Link Results at 5:00:00 hrs:
  ----------------------------------------------
                       Flow  Velocity  Headloss
  Link                  L/s       m/s    /1000m
  ----------------------------------------------
  PS_0A_001            4.78      0.61      4.15
  PS_0A_002            2.66      0.34      1.42
  PS_0A_003            1.66      0.21      0.61
  PS_0A_004            1.12      0.14      0.31
  PS_0A_005            0.76      0.10      0.16
  PS_0A_006            0.51      0.07      0.08
  PS_0A_007            0.36      0.05      0.04
  PS_0A_008            0.26      0.03      0.02
  PS_0A_009            0.17      0.02      0.01
  PS_0B_001            1.97      0.25      0.83
  PS_0B_002            1.90      0.24      0.78
  PS_0B_003            1.45      0.18      0.48
  PS_0B_004            1.04      0.13      0.27
  PS_0B_005            0.75      0.09      0.15
  PS_0B_006            0.50      0.06      0.07
  PS_0B_007            0.36      0.05      0.04
  PS_0B_008            0.25      0.03      0.02
  PS_0B_009            0.17      0.02      0.01
  PS_0C_001            0.84      0.11      0.18
  PS_0C_002            1.15      0.15      0.32
  PS_0C_003            1.07      0.14      0.28
  PS_0C_004            0.86      0.11      0.19
[...]
  PS_10_007           -0.28      0.04      0.03
  PS_10_008           -0.48      0.06      0.07
  PS_10_009           -1.12      0.14      0.30
  PS_01_010            0.03      0.00      0.00
  PS_02_010            0.03      0.00      0.00
  PS_03_010            0.02      0.00      0.00
  PS_04_010            0.01      0.00      0.00
  PS_05_010            0.00      0.00      0.00
  PS_06_010           -0.02      0.00      0.00
  PS_07_010           -0.10      0.01      0.00
  PS_08_010           -0.20      0.03      0.01
  PS_09_010           -0.36      0.05      0.04
  PS_10_010           -0.71      0.09      0.14
  PS_11_010           -1.44      0.18      0.48
  PS_0K_001           -0.03      0.00      0.00
  PS_0K_002           -0.06      0.01      0.00
  PS_0K_003           -0.10      0.01      0.00
  PS_0K_004           -0.15      0.02      0.01
  PS_0K_005           -0.20      0.03      0.01
  PS_0K_006           -0.29      0.04      0.03
  PS_0K_007           -0.45      0.06      0.06
  PS_0K_008           -0.71      0.09      0.14
  PS_0K_009           -1.13      0.14      0.31
  PS_0A_010            0.04      0.00      0.00
  PS_0B_010            0.03      0.00      0.00
  PS_0C_010            0.03      0.00      0.00
  PS_0D_010            0.02      0.00      0.00
  PS_0E_010            0.02      0.00      0.00
  PS_0F_010            0.01      0.00      0.00
  PS_0G_010           -0.00      0.00      0.00
  PS_0H_010            0.04      0.01      0.00
  PS_0I_010            0.35      0.04      0.04
  PS_0J_010           -1.38      0.18      0.44
  PS_0K_010           -1.90      0.24      0.78
  PS_11_001           -0.02      0.00      0.00
  PS_11_002           -0.05      0.01      0.00
  PS_11_003           -0.08      0.01      0.00
  PS_11_004           -0.12      0.02      0.01
  PS_11_005           -0.16      0.02      0.01
  PS_11_006           -0.21      0.03      0.01
  PS_11_007           -0.28      0.04      0.02
  PS_11_008           -0.30      0.04      0.03
  PS_11_009           -0.00      0.03      0.78
  PT_01_001            3.85      0.05      0.01
  PT_02_001            3.41      0.05      0.01
  PRV_001              3.85      0.05      0.00  PRV
  PRV_002              3.41      0.05      0.00  PRV
   
   
  Node Results at 24:00:00 hrs:
  ----------------------------------------------
                     Demand      Head  Pressure
  Node                  L/s         m         m
  ----------------------------------------------
  JT_01_001            0.00     49.97     49.97
  JT_0A_001            0.06     49.97     49.97
  JT_0A_002            0.06     49.91     49.91
  JT_0A_003            0.06     49.88     49.88
  JT_0A_004            0.06     49.87     49.87
  JT_0A_005            0.06     49.86     49.86
  JT_0A_006            0.06     49.86     49.86
  JT_0A_007            0.06     49.86     49.86
  JT_0A_008            0.06     49.86     49.86
  JT_0A_009            0.06     49.86     49.86
  JT_0A_010            0.06     49.86     49.86
  JT_0A_011            0.06     49.86     49.86
  JT_0B_001            0.06     49.91     49.91
  JT_0B_002            0.06     49.89     49.89
  JT_0B_003            0.06     49.88     49.88
  JT_0B_004            0.06     49.87     49.87
  JT_0B_005            0.06     49.86     49.86
  JT_0B_006            0.06     49.86     49.86
  JT_0B_007            0.06     49.86     49.86
  JT_0B_008            0.06     49.86     49.86
  JT_0B_009            0.06     49.86     49.86
  JT_0B_010            0.06     49.86     49.86
  JT_0B_011            0.06     49.86     49.86
  JT_0C_001            0.06     49.88     49.88
  JT_0C_002            0.06     49.88     49.88
  JT_0C_003            0.06     49.87     49.87
  JT_0C_004            0.06     49.87     49.87
  JT_0C_005            0.06     49.86     49.86
  JT_0C_006            0.06     49.86     49.86
  JT_0C_007            0.06     49.86     49.86
  JT_0C_008            0.06     49.86     49.86
  JT_0C_009            0.06     49.86     49.86
  JT_0C_010            0.06     49.86     49.86
  JT_0C_011            0.06     49.86     49.86
  JT_0D_001            0.06     49.87     49.87
  JT_0D_002            0.06     49.87     49.87
  JT_0D_003            0.06     49.87     49.87
  JT_0D_004            0.06     49.86     49.86
  JT_0D_005            0.06     49.86     49.86
  JT_0D_006            0.06     49.86     49.86
  JT_0D_007            0.06     49.86     49.86
  JT_0D_008            0.06     49.86     49.86
  JT_0D_009            0.06     49.86     49.86
  JT_0D_010            0.06     49.86     49.86
  JT_0D_011            0.06     49.86     49.86
  JT_0E_001            0.06     49.86     49.86
  JT_0E_002            0.06     49.86     49.86
  JT_0E_003            0.06     49.86     49.86
  JT_0E_004            0.06     49.86     49.86
  JT_0E_005            0.06     49.86     49.86
  JT_0E_006            0.06     49.86     49.86
  JT_0E_007            0.06     49.86     49.86
  JT_0E_008            0.06     49.86     49.86
  JT_0E_009            0.06     49.86     49.86
  JT_0E_010            0.06     49.86     49.86
  JT_0E_011            0.06     49.86     49.86
  JT_0F_001            0.06     49.86     49.86
  JT_0F_002            0.06     49.86     49.86
  JT_0F_003            0.06     49.86     49.86
  JT_0F_004            0.06     49.86     49.86
  JT_0F_005            0.06     49.86     49.86
  JT_0F_006            0.06     49.86     49.86
  JT_0F_007            0.06     49.86     49.86
  JT_0F_008            0.06     49.86     49.86
  JT_0F_009            0.06     49.86     49.86
  JT_0F_010            0.06     49.86     49.86
  JT_0F_011            0.06     49.86     49.86
  JT_0G_001            0.06     49.86     49.86
  JT_0G_002            0.06     49.86     49.86
  JT_0G_003            0.06     49.86     49.86
  JT_0G_004            0.06     49.86     49.86
  JT_0G_005            0.06     49.86     49.86
  JT_0G_006            0.06     49.86     49.86
  JT_0G_007            0.06     49.86     49.86
  JT_0G_008            0.06     49.86     49.86
  JT_0G_009            0.06     49.86     49.86
  JT_0G_010            0.06     49.86     49.86
  JT_0G_011            0.06     49.86     49.86
  JT_0H_001            0.06     49.86     49.86
  JT_0H_002            0.06     49.86     49.86
  JT_0H_003            0.06     49.86     49.86
  JT_0H_004            0.06     49.86     49.86
  JT_0H_005            0.06     49.86     49.86
  JT_0H_006            0.06     49.86     49.86
  JT_0H_007            0.06     49.86     49.86
  JT_0H_008            0.06     49.86     49.86
  JT_0H_009            0.06     49.86     49.86
  JT_0H_010            0.06     49.86     49.86
  JT_0H_011            0.06     49.86     49.86
  JT_0I_001            0.06     49.86     49.86
  JT_0I_002            0.06     49.86     49.86
  JT_0I_003            0.06     49.86     49.86
  JT_0I_004            0.06     49.86     49.86
  JT_0I_005            0.06     49.86     49.86
  JT_0I_006            0.06     49.86     49.86
  JT_0I_007            0.06     49.86     49.86
  JT_0I_008            0.06     49.87     49.87
  JT_0I_009            0.06     49.87     49.87
  JT_0I_010            0.06     49.87     49.87
  JT_0I_011            0.06     49.87     49.87
  JT_0J_001            0.06     49.86     49.86
  JT_0J_002            0.06     49.86     49.86
  JT_0J_003            0.06     49.86     49.86
  JT_0J_004            0.06     49.86     49.86
  JT_0J_005            0.06     49.86     49.86
  JT_0J_006            0.06     49.86     49.86
  JT_0J_007            0.06     49.86     49.86
  JT_0J_008            0.06     49.87     49.87
  JT_0J_009            0.06     49.88     49.88
  JT_0J_010            0.06     49.90     49.90
  JT_0J_011            0.06     49.94     49.94
  JT_0K_001            0.06     49.86     49.86
  JT_0K_002            0.06     49.86     49.86
  JT_0K_003            0.06     49.86     49.86
  JT_0K_004            0.06     49.86     49.86
  JT_0K_005            0.06     49.86     49.86
  JT_0K_006            0.06     49.86     49.86
  JT_0K_007            0.06     49.86     49.86
  JT_0K_008            0.06     49.87     49.87
  JT_0K_009            0.06     49.88     49.88
  JT_0K_010            0.06     49.91     49.91
  JT_0K_011            0.06     49.98     49.98
  JT_02_001            0.00     49.98     49.98
  RS0001              -3.62     50.00     -0.00  Reservoir
  RS0002              -3.20     50.00     -0.00  Reservoir
   
   
  Link Results at 24:00:00 hrs:
  ----------------------------------------------
                       Flow  Velocity  Headloss
  Link                  L/s       m/s    /1000m
  ----------------------------------------------
  PS_0A_001            1.78      0.23      0.69
  PS_0A_002            0.99      0.13      0.25
  PS_0A_003            0.63      0.08      0.11
  PS_0A_004            0.41      0.05      0.05
  PS_0A_005            0.28      0.04      0.02
  PS_0A_006            0.21      0.03      0.01
  PS_0A_007            0.15      0.02      0.01
  PS_0A_008            0.11      0.01      0.00
  PS_0A_009            0.07      0.01      0.00
  PS_0B_001            0.73      0.09      0.14
  PS_0B_002            0.70      0.09      0.14
  PS_0B_003            0.54      0.07      0.08
  PS_0B_004            0.39      0.05      0.05
  PS_0B_005            0.27      0.03      0.02
  PS_0B_006            0.20      0.03      0.01
  PS_0B_007            0.15      0.02      0.01
  PS_0B_008            0.10      0.01      0.00
  PS_0B_009            0.06      0.01      0.00
  PS_0C_001            0.31      0.04      0.03
  PS_0C_002            0.42      0.05      0.06
  PS_0C_003            0.39      0.05      0.05
  PS_0C_004            0.32      0.04      0.03
  PS_0C_005            0.24      0.03      0.02
  PS_0C_006            0.18      0.02      0.01
  PS_0C_007            0.13      0.02      0.01
  PS_0C_008            0.09      0.01      0.00
  PS_0C_009            0.06      0.01      0.00
  PS_0D_001            0.17      0.02      0.01
  PS_0D_002            0.26      0.03      0.02
  PS_0D_003            0.28      0.04      0.02
  PS_0D_004            0.25      0.03      0.02
  PS_0D_005            0.21      0.03      0.01
  PS_0D_006            0.15      0.02      0.01
  PS_0D_007            0.10      0.01      0.00
  PS_0D_008            0.07      0.01      0.00
  PS_0D_009            0.04      0.01      0.00
  PS_0E_001            0.08      0.01      0.00
  PS_0E_002            0.15      0.02      0.01
  PS_0E_003            0.17      0.02      0.01
  PS_0E_004            0.16      0.02      0.01
  PS_0E_005            0.14      0.02      0.01
  PS_0E_006            0.10      0.01      0.00
  PS_0E_007            0.06      0.01      0.00
  PS_0E_008            0.04      0.01      0.00
  PS_0E_009            0.03      0.00      0.00
  PS_0F_001            0.02      0.00      0.00
  PS_0F_002            0.03      0.00      0.00
  PS_0F_003            0.04      0.01      0.00
  PS_0F_004            0.05      0.01      0.00
  PS_0F_005            0.05      0.01      0.00
  PS_0F_006            0.03      0.00      0.00
  PS_0F_007            0.01      0.00      0.00
  PS_0F_008            0.01      0.00      0.00
  PS_0F_009            0.01      0.00      0.00
  PS_0G_001           -0.00      0.00      0.00
  PS_0G_002           -0.00      0.00      0.00
  PS_0G_003           -0.00      0.00      0.00
  PS_0G_004           -0.01      0.00      0.00
  PS_0G_005           -0.03      0.00      0.00
  PS_0G_006           -0.05      0.01      0.00
  PS_0G_007           -0.05      0.01      0.00
  PS_0G_008           -0.03      0.00      0.00
  PS_0G_009           -0.02      0.00      0.00
  PS_0H_001           -0.01      0.00      0.00
  PS_0H_002           -0.02      0.00      0.00
  PS_0H_003           -0.04      0.01      0.00
  PS_0H_004           -0.06      0.01      0.00
  PS_0H_005           -0.10      0.01      0.00
  PS_0H_006           -0.16      0.02      0.01
  PS_0H_007           -0.18      0.02      0.01
  PS_0H_008           -0.18      0.02      0.01
  PS_0H_009           -0.08      0.01      0.00
  PS_0I_001           -0.02      0.00      0.00
  PS_0I_002           -0.04      0.01      0.00
  PS_0I_003           -0.07      0.01      0.00
  PS_0I_004           -0.10      0.01      0.00
  PS_0I_005           -0.16      0.02      0.01
  PS_0I_006           -0.22      0.03      0.01
  PS_0I_007           -0.28      0.04      0.03
  PS_0I_008           -0.32      0.04      0.03
  PS_0I_009           -0.22      0.03      0.01
  PS_0J_001           -0.02      0.00      0.00
  PS_0J_002           -0.05      0.01      0.00
  PS_0J_003           -0.09      0.01      0.00
  PS_0J_004           -0.13      0.02      0.01
  PS_0J_005           -0.18      0.02      0.01
  PS_0J_006           -0.26      0.03      0.02
  PS_0J_007           -0.40      0.05      0.05
  PS_0J_008           -0.57      0.07      0.09
  PS_0J_009           -0.86      0.11      0.19
  PS_01_001            1.78      0.23      0.69
  PS_01_002            0.99      0.13      0.25
  PS_01_003            0.63      0.08      0.11
  PS_01_004            0.40      0.05      0.05
  PS_01_005            0.27      0.03      0.02
  PS_01_006            0.20      0.03      0.01
  PS_01_007            0.14      0.02      0.01
  PS_01_008            0.10      0.01      0.00
  PS_01_009            0.06      0.01      0.00
  PS_02_001            0.73      0.09      0.14
  PS_02_002            0.70      0.09      0.13
  PS_02_003            0.54      0.07      0.08
  PS_02_004            0.39      0.05      0.05
  PS_02_005            0.26      0.03      0.02
  PS_02_006            0.19      0.02      0.01
  PS_02_007            0.13      0.02      0.01
  PS_02_008            0.09      0.01      0.00
  PS_02_009            0.06      0.01      0.00
  PS_03_001            0.31      0.04      0.03
  PS_03_002            0.42      0.05      0.06
  PS_03_003            0.39      0.05      0.05
  PS_03_004            0.32      0.04      0.03
  PS_03_005            0.24      0.03      0.02
  PS_03_006            0.17      0.02      0.01
  PS_03_007            0.11      0.01      0.00
  PS_03_008            0.07      0.01      0.00
  PS_03_009            0.04      0.01      0.00
  PS_04_001            0.16      0.02      0.01
  PS_04_002            0.26      0.03      0.02
  PS_04_003            0.28      0.04      0.02
  PS_04_004            0.25      0.03      0.02
  PS_04_005            0.20      0.03      0.01
  PS_04_006            0.13      0.02      0.01
  PS_04_007            0.08      0.01      0.00
  PS_04_008            0.05      0.01      0.00
  PS_04_009            0.03      0.00      0.00
  PS_05_001            0.07      0.01      0.00
  PS_05_002            0.14      0.02      0.01
  PS_05_003            0.16      0.02      0.01
  PS_05_004            0.15      0.02      0.01
  PS_05_005            0.11      0.01      0.00
  PS_05_006            0.06      0.01      0.00
  PS_05_007            0.02      0.00      0.00
  PS_05_008            0.01      0.00      0.00
  PS_05_009            0.00      0.00      0.00
  PS_06_001            0.01      0.00      0.00
  PS_06_002            0.02      0.00      0.00
  PS_06_003            0.03      0.00      0.00
  PS_06_004            0.03      0.00      0.00
  PS_06_005            0.02      0.00      0.00
  PS_06_006           -0.01      0.00      0.00
  PS_06_007           -0.05      0.01      0.00
  PS_06_008           -0.05      0.01      0.00
  PS_06_009           -0.04      0.00      0.00
  PS_07_001           -0.00      0.00      0.00
  PS_07_002           -0.01      0.00      0.00
  PS_07_003           -0.01      0.00      0.00
  PS_07_004           -0.02      0.00      0.00
  PS_07_005           -0.05      0.01      0.00
  PS_07_006           -0.09      0.01      0.00
  PS_07_007           -0.16      0.02      0.01
  PS_07_008           -0.19      0.02      0.01
  PS_07_009           -0.18      0.02      0.01
  PS_08_001           -0.01      0.00      0.00
  PS_08_002           -0.02      0.00      0.00
  PS_08_003           -0.04      0.01      0.00
  PS_08_004           -0.06      0.01      0.00
  PS_08_005           -0.10      0.01      0.00
  PS_08_006           -0.15      0.02      0.01
  PS_08_007           -0.22      0.03      0.01
  PS_08_008           -0.28      0.04      0.03
  PS_08_009           -0.31      0.04      0.03
  PS_09_001           -0.02      0.00      0.00
  PS_09_002           -0.04      0.00      0.00
  PS_09_003           -0.06      0.01      0.00
  PS_09_004           -0.09      0.01      0.00
  PS_09_005           -0.13      0.02      0.01
  PS_09_006           -0.19      0.02      0.01
  PS_09_007           -0.26      0.03      0.02
  PS_09_008           -0.41      0.05      0.05
  PS_09_009           -0.57      0.07      0.09
  PS_10_001           -0.02      0.00      0.00
  PS_10_002           -0.04      0.01      0.00
  PS_10_003           -0.07      0.01      0.00
  PS_10_004           -0.10      0.01      0.00
  PS_10_005           -0.15      0.02      0.01
  PS_10_006           -0.20      0.03      0.01
  PS_10_007           -0.27      0.03      0.02
  PS_10_008           -0.44      0.06      0.06
  PS_10_009           -1.05      0.13      0.27
  PS_01_010            0.03      0.00      0.00
  PS_02_010            0.03      0.00      0.00
  PS_03_010            0.02      0.00      0.00
  PS_04_010            0.01      0.00      0.00
  PS_05_010            0.00      0.00      0.00
  PS_06_010           -0.02      0.00      0.00
  PS_07_010           -0.09      0.01      0.00
  PS_08_010           -0.19      0.02      0.01
  PS_09_010           -0.34      0.04      0.04
  PS_10_010           -0.67      0.09      0.12
  PS_11_010           -1.36      0.17      0.43
  PS_0K_001           -0.03      0.00      0.00
  PS_0K_002           -0.06      0.01      0.00
  PS_0K_003           -0.09      0.01      0.00
  PS_0K_004           -0.14      0.02      0.01
  PS_0K_005           -0.19      0.02      0.01
  PS_0K_006           -0.27      0.03      0.02
  PS_0K_007           -0.42      0.05      0.06
  PS_0K_008           -0.67      0.09      0.12
  PS_0K_009           -1.06      0.14      0.28
  PS_0A_010            0.03      0.00      0.00
  PS_0B_010            0.03      0.00      0.00
  PS_0C_010            0.03      0.00      0.00
  PS_0D_010            0.02      0.00      0.00
  PS_0E_010            0.01      0.00      0.00
  PS_0F_010            0.01      0.00      0.00
  PS_0G_010           -0.00      0.00      0.00
  PS_0H_010            0.04      0.00      0.00
  PS_0I_010            0.33      0.04      0.04
  PS_0J_010           -1.30      0.17      0.39
  PS_0K_010           -1.79      0.23      0.70
  PS_11_001           -0.02      0.00      0.00
  PS_11_002           -0.05      0.01      0.00
  PS_11_003           -0.08      0.01      0.00
  PS_11_004           -0.11      0.01      0.00
  PS_11_005           -0.15      0.02      0.01
  PS_11_006           -0.20      0.03      0.01
  PS_11_007           -0.26      0.03      0.02
  PS_11_008           -0.28      0.04      0.03
  PS_11_009           -0.00      0.03      0.70
  PT_01_001            3.62      0.05      0.01
  PT_02_001            3.20      0.05      0.01
  PRV_001              3.62      0.05      0.00  PRV
  PRV_002              3.20      0.05      0.00  PRV
   
  Analysis ended Mon Feb 04 16:51:07 2019
